* NGSPICE file created from alu_m.ext - technology: sky130A

* Black-box entry subcircuit for sky130_fd_sc_hd__diode_2 abstract view
.subckt sky130_fd_sc_hd__diode_2 DIODE VGND VNB VPB VPWR
.ends

* Black-box entry subcircuit for sky130_fd_sc_hd__nor2_1 abstract view
.subckt sky130_fd_sc_hd__nor2_1 A B VGND VNB VPB VPWR Y
.ends

* Black-box entry subcircuit for sky130_fd_sc_hd__decap_4 abstract view
.subckt sky130_fd_sc_hd__decap_4 VGND VNB VPB VPWR
.ends

* Black-box entry subcircuit for sky130_fd_sc_hd__fill_2 abstract view
.subckt sky130_fd_sc_hd__fill_2 VGND VNB VPB VPWR
.ends

* Black-box entry subcircuit for sky130_ef_sc_hd__decap_12 abstract view
.subckt sky130_ef_sc_hd__decap_12 VGND VNB VPB VPWR
.ends

* Black-box entry subcircuit for sky130_fd_sc_hd__decap_6 abstract view
.subckt sky130_fd_sc_hd__decap_6 VGND VNB VPB VPWR
.ends

* Black-box entry subcircuit for sky130_fd_sc_hd__decap_8 abstract view
.subckt sky130_fd_sc_hd__decap_8 VGND VNB VPB VPWR
.ends

* Black-box entry subcircuit for sky130_fd_sc_hd__fill_1 abstract view
.subckt sky130_fd_sc_hd__fill_1 VGND VNB VPB VPWR
.ends

* Black-box entry subcircuit for sky130_fd_sc_hd__decap_3 abstract view
.subckt sky130_fd_sc_hd__decap_3 VGND VNB VPB VPWR
.ends

* Black-box entry subcircuit for sky130_fd_sc_hd__o21ai_1 abstract view
.subckt sky130_fd_sc_hd__o21ai_1 A1 A2 B1 VGND VNB VPB VPWR Y
.ends

* Black-box entry subcircuit for sky130_fd_sc_hd__nand2_1 abstract view
.subckt sky130_fd_sc_hd__nand2_1 A B VGND VNB VPB VPWR Y
.ends

* Black-box entry subcircuit for sky130_fd_sc_hd__tapvpwrvgnd_1 abstract view
.subckt sky130_fd_sc_hd__tapvpwrvgnd_1 VGND VPWR
.ends

* Black-box entry subcircuit for sky130_fd_sc_hd__a21oi_2 abstract view
.subckt sky130_fd_sc_hd__a21oi_2 A1 A2 B1 VGND VNB VPB VPWR Y
.ends

* Black-box entry subcircuit for sky130_fd_sc_hd__nand3b_1 abstract view
.subckt sky130_fd_sc_hd__nand3b_1 A_N B C VGND VNB VPB VPWR Y
.ends

* Black-box entry subcircuit for sky130_fd_sc_hd__nand3_1 abstract view
.subckt sky130_fd_sc_hd__nand3_1 A B C VGND VNB VPB VPWR Y
.ends

* Black-box entry subcircuit for sky130_fd_sc_hd__nand3_2 abstract view
.subckt sky130_fd_sc_hd__nand3_2 A B C VGND VNB VPB VPWR Y
.ends

* Black-box entry subcircuit for sky130_fd_sc_hd__inv_2 abstract view
.subckt sky130_fd_sc_hd__inv_2 A VGND VNB VPB VPWR Y
.ends

* Black-box entry subcircuit for sky130_fd_sc_hd__mux2_1 abstract view
.subckt sky130_fd_sc_hd__mux2_1 A0 A1 S VGND VNB VPB VPWR X
.ends

* Black-box entry subcircuit for sky130_fd_sc_hd__or2_1 abstract view
.subckt sky130_fd_sc_hd__or2_1 A B VGND VNB VPB VPWR X
.ends

* Black-box entry subcircuit for sky130_fd_sc_hd__o21ai_2 abstract view
.subckt sky130_fd_sc_hd__o21ai_2 A1 A2 B1 VGND VNB VPB VPWR Y
.ends

* Black-box entry subcircuit for sky130_fd_sc_hd__a311o_4 abstract view
.subckt sky130_fd_sc_hd__a311o_4 A1 A2 A3 B1 C1 VGND VNB VPB VPWR X
.ends

* Black-box entry subcircuit for sky130_fd_sc_hd__a221o_1 abstract view
.subckt sky130_fd_sc_hd__a221o_1 A1 A2 B1 B2 C1 VGND VNB VPB VPWR X
.ends

* Black-box entry subcircuit for sky130_fd_sc_hd__nand2_2 abstract view
.subckt sky130_fd_sc_hd__nand2_2 A B VGND VNB VPB VPWR Y
.ends

* Black-box entry subcircuit for sky130_fd_sc_hd__and4_1 abstract view
.subckt sky130_fd_sc_hd__and4_1 A B C D VGND VNB VPB VPWR X
.ends

* Black-box entry subcircuit for sky130_fd_sc_hd__xor2_4 abstract view
.subckt sky130_fd_sc_hd__xor2_4 A B VGND VNB VPB VPWR X
.ends

* Black-box entry subcircuit for sky130_fd_sc_hd__o22a_1 abstract view
.subckt sky130_fd_sc_hd__o22a_1 A1 A2 B1 B2 VGND VNB VPB VPWR X
.ends

* Black-box entry subcircuit for sky130_fd_sc_hd__nand2b_1 abstract view
.subckt sky130_fd_sc_hd__nand2b_1 A_N B VGND VNB VPB VPWR Y
.ends

* Black-box entry subcircuit for sky130_fd_sc_hd__or2b_1 abstract view
.subckt sky130_fd_sc_hd__or2b_1 A B_N VGND VNB VPB VPWR X
.ends

* Black-box entry subcircuit for sky130_fd_sc_hd__a21o_1 abstract view
.subckt sky130_fd_sc_hd__a21o_1 A1 A2 B1 VGND VNB VPB VPWR X
.ends

* Black-box entry subcircuit for sky130_fd_sc_hd__xnor2_1 abstract view
.subckt sky130_fd_sc_hd__xnor2_1 A B VGND VNB VPB VPWR Y
.ends

* Black-box entry subcircuit for sky130_fd_sc_hd__and2_1 abstract view
.subckt sky130_fd_sc_hd__and2_1 A B VGND VNB VPB VPWR X
.ends

* Black-box entry subcircuit for sky130_fd_sc_hd__xor2_1 abstract view
.subckt sky130_fd_sc_hd__xor2_1 A B VGND VNB VPB VPWR X
.ends

* Black-box entry subcircuit for sky130_fd_sc_hd__a21boi_1 abstract view
.subckt sky130_fd_sc_hd__a21boi_1 A1 A2 B1_N VGND VNB VPB VPWR Y
.ends

* Black-box entry subcircuit for sky130_fd_sc_hd__a21bo_1 abstract view
.subckt sky130_fd_sc_hd__a21bo_1 A1 A2 B1_N VGND VNB VPB VPWR X
.ends

* Black-box entry subcircuit for sky130_fd_sc_hd__or4_1 abstract view
.subckt sky130_fd_sc_hd__or4_1 A B C D VGND VNB VPB VPWR X
.ends

* Black-box entry subcircuit for sky130_fd_sc_hd__o21a_1 abstract view
.subckt sky130_fd_sc_hd__o21a_1 A1 A2 B1 VGND VNB VPB VPWR X
.ends

* Black-box entry subcircuit for sky130_fd_sc_hd__buf_8 abstract view
.subckt sky130_fd_sc_hd__buf_8 A VGND VNB VPB VPWR X
.ends

* Black-box entry subcircuit for sky130_fd_sc_hd__and3_1 abstract view
.subckt sky130_fd_sc_hd__and3_1 A B C VGND VNB VPB VPWR X
.ends

* Black-box entry subcircuit for sky130_fd_sc_hd__buf_4 abstract view
.subckt sky130_fd_sc_hd__buf_4 A VGND VNB VPB VPWR X
.ends

* Black-box entry subcircuit for sky130_fd_sc_hd__o2111ai_4 abstract view
.subckt sky130_fd_sc_hd__o2111ai_4 A1 A2 B1 C1 D1 VGND VNB VPB VPWR Y
.ends

* Black-box entry subcircuit for sky130_fd_sc_hd__a22o_1 abstract view
.subckt sky130_fd_sc_hd__a22o_1 A1 A2 B1 B2 VGND VNB VPB VPWR X
.ends

* Black-box entry subcircuit for sky130_fd_sc_hd__clkbuf_16 abstract view
.subckt sky130_fd_sc_hd__clkbuf_16 A VGND VNB VPB VPWR X
.ends

* Black-box entry subcircuit for sky130_fd_sc_hd__buf_12 abstract view
.subckt sky130_fd_sc_hd__buf_12 A VGND VNB VPB VPWR X
.ends

* Black-box entry subcircuit for sky130_fd_sc_hd__nand3b_2 abstract view
.subckt sky130_fd_sc_hd__nand3b_2 A_N B C VGND VNB VPB VPWR Y
.ends

* Black-box entry subcircuit for sky130_fd_sc_hd__o21bai_1 abstract view
.subckt sky130_fd_sc_hd__o21bai_1 A1 A2 B1_N VGND VNB VPB VPWR Y
.ends

* Black-box entry subcircuit for sky130_fd_sc_hd__inv_4 abstract view
.subckt sky130_fd_sc_hd__inv_4 A VGND VNB VPB VPWR Y
.ends

* Black-box entry subcircuit for sky130_fd_sc_hd__a31oi_1 abstract view
.subckt sky130_fd_sc_hd__a31oi_1 A1 A2 A3 B1 VGND VNB VPB VPWR Y
.ends

* Black-box entry subcircuit for sky130_fd_sc_hd__nor3_1 abstract view
.subckt sky130_fd_sc_hd__nor3_1 A B C VGND VNB VPB VPWR Y
.ends

* Black-box entry subcircuit for sky130_fd_sc_hd__a311o_1 abstract view
.subckt sky130_fd_sc_hd__a311o_1 A1 A2 A3 B1 C1 VGND VNB VPB VPWR X
.ends

* Black-box entry subcircuit for sky130_fd_sc_hd__a21oi_1 abstract view
.subckt sky130_fd_sc_hd__a21oi_1 A1 A2 B1 VGND VNB VPB VPWR Y
.ends

* Black-box entry subcircuit for sky130_fd_sc_hd__and2b_1 abstract view
.subckt sky130_fd_sc_hd__and2b_1 A_N B VGND VNB VPB VPWR X
.ends

* Black-box entry subcircuit for sky130_fd_sc_hd__xor2_2 abstract view
.subckt sky130_fd_sc_hd__xor2_2 A B VGND VNB VPB VPWR X
.ends

* Black-box entry subcircuit for sky130_fd_sc_hd__nand3_4 abstract view
.subckt sky130_fd_sc_hd__nand3_4 A B C VGND VNB VPB VPWR Y
.ends

* Black-box entry subcircuit for sky130_fd_sc_hd__a31o_1 abstract view
.subckt sky130_fd_sc_hd__a31o_1 A1 A2 A3 B1 VGND VNB VPB VPWR X
.ends

* Black-box entry subcircuit for sky130_fd_sc_hd__clkbuf_8 abstract view
.subckt sky130_fd_sc_hd__clkbuf_8 A VGND VNB VPB VPWR X
.ends

* Black-box entry subcircuit for sky130_fd_sc_hd__a2bb2o_1 abstract view
.subckt sky130_fd_sc_hd__a2bb2o_1 A1_N A2_N B1 B2 VGND VNB VPB VPWR X
.ends

* Black-box entry subcircuit for sky130_fd_sc_hd__or3_2 abstract view
.subckt sky130_fd_sc_hd__or3_2 A B C VGND VNB VPB VPWR X
.ends

* Black-box entry subcircuit for sky130_fd_sc_hd__clkinv_4 abstract view
.subckt sky130_fd_sc_hd__clkinv_4 A VGND VNB VPB VPWR Y
.ends

* Black-box entry subcircuit for sky130_fd_sc_hd__o221a_1 abstract view
.subckt sky130_fd_sc_hd__o221a_1 A1 A2 B1 B2 C1 VGND VNB VPB VPWR X
.ends

* Black-box entry subcircuit for sky130_fd_sc_hd__o2111a_1 abstract view
.subckt sky130_fd_sc_hd__o2111a_1 A1 A2 B1 C1 D1 VGND VNB VPB VPWR X
.ends

* Black-box entry subcircuit for sky130_fd_sc_hd__buf_6 abstract view
.subckt sky130_fd_sc_hd__buf_6 A VGND VNB VPB VPWR X
.ends

* Black-box entry subcircuit for sky130_fd_sc_hd__or3_1 abstract view
.subckt sky130_fd_sc_hd__or3_1 A B C VGND VNB VPB VPWR X
.ends

* Black-box entry subcircuit for sky130_fd_sc_hd__a21boi_2 abstract view
.subckt sky130_fd_sc_hd__a21boi_2 A1 A2 B1_N VGND VNB VPB VPWR Y
.ends

* Black-box entry subcircuit for sky130_fd_sc_hd__a2111o_1 abstract view
.subckt sky130_fd_sc_hd__a2111o_1 A1 A2 B1 C1 D1 VGND VNB VPB VPWR X
.ends

* Black-box entry subcircuit for sky130_fd_sc_hd__nor2b_1 abstract view
.subckt sky130_fd_sc_hd__nor2b_1 A B_N VGND VNB VPB VPWR Y
.ends

* Black-box entry subcircuit for sky130_fd_sc_hd__inv_6 abstract view
.subckt sky130_fd_sc_hd__inv_6 A VGND VNB VPB VPWR Y
.ends

* Black-box entry subcircuit for sky130_fd_sc_hd__clkinvlp_2 abstract view
.subckt sky130_fd_sc_hd__clkinvlp_2 A VGND VNB VPB VPWR Y
.ends

* Black-box entry subcircuit for sky130_fd_sc_hd__and4b_1 abstract view
.subckt sky130_fd_sc_hd__and4b_1 A_N B C D VGND VNB VPB VPWR X
.ends

* Black-box entry subcircuit for sky130_fd_sc_hd__nor2_2 abstract view
.subckt sky130_fd_sc_hd__nor2_2 A B VGND VNB VPB VPWR Y
.ends

* Black-box entry subcircuit for sky130_fd_sc_hd__o22ai_1 abstract view
.subckt sky130_fd_sc_hd__o22ai_1 A1 A2 B1 B2 VGND VNB VPB VPWR Y
.ends

* Black-box entry subcircuit for sky130_fd_sc_hd__or3b_1 abstract view
.subckt sky130_fd_sc_hd__or3b_1 A B C_N VGND VNB VPB VPWR X
.ends

* Black-box entry subcircuit for sky130_fd_sc_hd__and2_2 abstract view
.subckt sky130_fd_sc_hd__and2_2 A B VGND VNB VPB VPWR X
.ends

* Black-box entry subcircuit for sky130_fd_sc_hd__a211o_1 abstract view
.subckt sky130_fd_sc_hd__a211o_1 A1 A2 B1 C1 VGND VNB VPB VPWR X
.ends

* Black-box entry subcircuit for sky130_fd_sc_hd__a31o_4 abstract view
.subckt sky130_fd_sc_hd__a31o_4 A1 A2 A3 B1 VGND VNB VPB VPWR X
.ends

* Black-box entry subcircuit for sky130_fd_sc_hd__nand2_4 abstract view
.subckt sky130_fd_sc_hd__nand2_4 A B VGND VNB VPB VPWR Y
.ends

* Black-box entry subcircuit for sky130_fd_sc_hd__a221oi_4 abstract view
.subckt sky130_fd_sc_hd__a221oi_4 A1 A2 B1 B2 C1 VGND VNB VPB VPWR Y
.ends

* Black-box entry subcircuit for sky130_fd_sc_hd__o221ai_4 abstract view
.subckt sky130_fd_sc_hd__o221ai_4 A1 A2 B1 B2 C1 VGND VNB VPB VPWR Y
.ends

* Black-box entry subcircuit for sky130_fd_sc_hd__o211ai_4 abstract view
.subckt sky130_fd_sc_hd__o211ai_4 A1 A2 B1 C1 VGND VNB VPB VPWR Y
.ends

* Black-box entry subcircuit for sky130_fd_sc_hd__o211a_2 abstract view
.subckt sky130_fd_sc_hd__o211a_2 A1 A2 B1 C1 VGND VNB VPB VPWR X
.ends

* Black-box entry subcircuit for sky130_fd_sc_hd__o31a_1 abstract view
.subckt sky130_fd_sc_hd__o31a_1 A1 A2 A3 B1 VGND VNB VPB VPWR X
.ends

* Black-box entry subcircuit for sky130_fd_sc_hd__nor3b_1 abstract view
.subckt sky130_fd_sc_hd__nor3b_1 A B C_N VGND VNB VPB VPWR Y
.ends

* Black-box entry subcircuit for sky130_fd_sc_hd__a31o_2 abstract view
.subckt sky130_fd_sc_hd__a31o_2 A1 A2 A3 B1 VGND VNB VPB VPWR X
.ends

* Black-box entry subcircuit for sky130_fd_sc_hd__o2111a_2 abstract view
.subckt sky130_fd_sc_hd__o2111a_2 A1 A2 B1 C1 D1 VGND VNB VPB VPWR X
.ends

* Black-box entry subcircuit for sky130_fd_sc_hd__o221a_2 abstract view
.subckt sky130_fd_sc_hd__o221a_2 A1 A2 B1 B2 C1 VGND VNB VPB VPWR X
.ends

* Black-box entry subcircuit for sky130_fd_sc_hd__o21ba_1 abstract view
.subckt sky130_fd_sc_hd__o21ba_1 A1 A2 B1_N VGND VNB VPB VPWR X
.ends

* Black-box entry subcircuit for sky130_fd_sc_hd__o211a_1 abstract view
.subckt sky130_fd_sc_hd__o211a_1 A1 A2 B1 C1 VGND VNB VPB VPWR X
.ends

* Black-box entry subcircuit for sky130_fd_sc_hd__o211ai_1 abstract view
.subckt sky130_fd_sc_hd__o211ai_1 A1 A2 B1 C1 VGND VNB VPB VPWR Y
.ends

* Black-box entry subcircuit for sky130_fd_sc_hd__or3_4 abstract view
.subckt sky130_fd_sc_hd__or3_4 A B C VGND VNB VPB VPWR X
.ends

* Black-box entry subcircuit for sky130_fd_sc_hd__o311a_1 abstract view
.subckt sky130_fd_sc_hd__o311a_1 A1 A2 A3 B1 C1 VGND VNB VPB VPWR X
.ends

* Black-box entry subcircuit for sky130_fd_sc_hd__clkbuf_4 abstract view
.subckt sky130_fd_sc_hd__clkbuf_4 A VGND VNB VPB VPWR X
.ends

* Black-box entry subcircuit for sky130_fd_sc_hd__buf_1 abstract view
.subckt sky130_fd_sc_hd__buf_1 A VGND VNB VPB VPWR X
.ends

* Black-box entry subcircuit for sky130_fd_sc_hd__nand2b_2 abstract view
.subckt sky130_fd_sc_hd__nand2b_2 A_N B VGND VNB VPB VPWR Y
.ends

* Black-box entry subcircuit for sky130_fd_sc_hd__clkbuf_2 abstract view
.subckt sky130_fd_sc_hd__clkbuf_2 A VGND VNB VPB VPWR X
.ends

* Black-box entry subcircuit for sky130_fd_sc_hd__a211oi_2 abstract view
.subckt sky130_fd_sc_hd__a211oi_2 A1 A2 B1 C1 VGND VNB VPB VPWR Y
.ends

* Black-box entry subcircuit for sky130_fd_sc_hd__buf_2 abstract view
.subckt sky130_fd_sc_hd__buf_2 A VGND VNB VPB VPWR X
.ends

* Black-box entry subcircuit for sky130_fd_sc_hd__a211o_2 abstract view
.subckt sky130_fd_sc_hd__a211o_2 A1 A2 B1 C1 VGND VNB VPB VPWR X
.ends

* Black-box entry subcircuit for sky130_fd_sc_hd__clkbuf_1 abstract view
.subckt sky130_fd_sc_hd__clkbuf_1 A VGND VNB VPB VPWR X
.ends

* Black-box entry subcircuit for sky130_fd_sc_hd__or4_2 abstract view
.subckt sky130_fd_sc_hd__or4_2 A B C D VGND VNB VPB VPWR X
.ends

* Black-box entry subcircuit for sky130_fd_sc_hd__a21oi_4 abstract view
.subckt sky130_fd_sc_hd__a21oi_4 A1 A2 B1 VGND VNB VPB VPWR Y
.ends

* Black-box entry subcircuit for sky130_fd_sc_hd__nor2_4 abstract view
.subckt sky130_fd_sc_hd__nor2_4 A B VGND VNB VPB VPWR Y
.ends

* Black-box entry subcircuit for sky130_fd_sc_hd__a31oi_4 abstract view
.subckt sky130_fd_sc_hd__a31oi_4 A1 A2 A3 B1 VGND VNB VPB VPWR Y
.ends

* Black-box entry subcircuit for sky130_fd_sc_hd__o221ai_2 abstract view
.subckt sky130_fd_sc_hd__o221ai_2 A1 A2 B1 B2 C1 VGND VNB VPB VPWR Y
.ends

* Black-box entry subcircuit for sky130_fd_sc_hd__nor2b_2 abstract view
.subckt sky130_fd_sc_hd__nor2b_2 A B_N VGND VNB VPB VPWR Y
.ends

* Black-box entry subcircuit for sky130_fd_sc_hd__a31oi_2 abstract view
.subckt sky130_fd_sc_hd__a31oi_2 A1 A2 A3 B1 VGND VNB VPB VPWR Y
.ends

* Black-box entry subcircuit for sky130_fd_sc_hd__a221o_4 abstract view
.subckt sky130_fd_sc_hd__a221o_4 A1 A2 B1 B2 C1 VGND VNB VPB VPWR X
.ends

* Black-box entry subcircuit for sky130_fd_sc_hd__xnor2_2 abstract view
.subckt sky130_fd_sc_hd__xnor2_2 A B VGND VNB VPB VPWR Y
.ends

* Black-box entry subcircuit for sky130_fd_sc_hd__nor3_2 abstract view
.subckt sky130_fd_sc_hd__nor3_2 A B C VGND VNB VPB VPWR Y
.ends

* Black-box entry subcircuit for sky130_fd_sc_hd__a2111o_4 abstract view
.subckt sky130_fd_sc_hd__a2111o_4 A1 A2 B1 C1 D1 VGND VNB VPB VPWR X
.ends

.subckt alu_m a_i[0] a_i[10] a_i[11] a_i[12] a_i[13] a_i[14] a_i[15] a_i[16] a_i[17]
+ a_i[18] a_i[19] a_i[1] a_i[20] a_i[21] a_i[22] a_i[23] a_i[24] a_i[25] a_i[26] a_i[27]
+ a_i[28] a_i[29] a_i[2] a_i[30] a_i[31] a_i[3] a_i[4] a_i[5] a_i[6] a_i[7] a_i[8]
+ a_i[9] alu_ctl_i[0] alu_ctl_i[1] alu_ctl_i[2] alu_ctl_i[3] b_i[0] b_i[10] b_i[11]
+ b_i[12] b_i[13] b_i[14] b_i[15] b_i[16] b_i[17] b_i[18] b_i[19] b_i[1] b_i[20] b_i[21]
+ b_i[22] b_i[23] b_i[24] b_i[25] b_i[26] b_i[27] b_i[28] b_i[29] b_i[2] b_i[30] b_i[31]
+ b_i[3] b_i[4] b_i[5] b_i[6] b_i[7] b_i[8] b_i[9] result_o[0] result_o[10] result_o[11]
+ result_o[12] result_o[13] result_o[14] result_o[15] result_o[16] result_o[17] result_o[18]
+ result_o[19] result_o[1] result_o[20] result_o[21] result_o[22] result_o[23] result_o[24]
+ result_o[25] result_o[26] result_o[27] result_o[28] result_o[29] result_o[2] result_o[30]
+ result_o[31] result_o[3] result_o[4] result_o[5] result_o[6] result_o[7] result_o[8]
+ result_o[9] vccd1 vssd1
XANTENNA__15814__B _16465_/B vssd1 vssd1 vccd1 vccd1 sky130_fd_sc_hd__diode_2
X_09671_ _09722_/B _09722_/A vssd1 vssd1 vccd1 vccd1 _09672_/C sky130_fd_sc_hd__nor2_1
XFILLER_0_77_601 vssd1 vssd1 vccd1 vccd1 sky130_fd_sc_hd__decap_4
XFILLER_0_89_461 vssd1 vssd1 vccd1 vccd1 sky130_fd_sc_hd__fill_2
XFILLER_0_167_809 vssd1 vssd1 vccd1 vccd1 sky130_ef_sc_hd__decap_12
XFILLER_0_77_634 vssd1 vssd1 vccd1 vccd1 sky130_fd_sc_hd__decap_6
XFILLER_0_89_494 vssd1 vssd1 vccd1 vccd1 sky130_fd_sc_hd__fill_2
XFILLER_0_134_50 vssd1 vssd1 vccd1 vccd1 sky130_fd_sc_hd__decap_6
XFILLER_0_134_72 vssd1 vssd1 vccd1 vccd1 sky130_fd_sc_hd__decap_4
XFILLER_0_37_509 vssd1 vssd1 vccd1 vccd1 sky130_fd_sc_hd__decap_8
XFILLER_0_49_369 vssd1 vssd1 vccd1 vccd1 sky130_ef_sc_hd__decap_12
XANTENNA__16645__B _18371_/A vssd1 vssd1 vccd1 vccd1 sky130_fd_sc_hd__diode_2
XFILLER_0_18_701 vssd1 vssd1 vccd1 vccd1 sky130_ef_sc_hd__decap_12
XFILLER_0_64_306 vssd1 vssd1 vccd1 vccd1 sky130_fd_sc_hd__fill_2
XFILLER_0_58_881 vssd1 vssd1 vccd1 vccd1 sky130_ef_sc_hd__decap_12
XFILLER_0_147_555 vssd1 vssd1 vccd1 vccd1 sky130_fd_sc_hd__fill_1
XFILLER_0_92_637 vssd1 vssd1 vccd1 vccd1 sky130_fd_sc_hd__decap_6
XFILLER_0_119_257 vssd1 vssd1 vccd1 vccd1 sky130_ef_sc_hd__decap_12
XFILLER_0_135_717 vssd1 vssd1 vccd1 vccd1 sky130_fd_sc_hd__decap_8
XFILLER_0_45_520 vssd1 vssd1 vccd1 vccd1 sky130_ef_sc_hd__decap_12
XFILLER_0_72_350 vssd1 vssd1 vccd1 vccd1 sky130_fd_sc_hd__decap_6
XFILLER_0_91_169 vssd1 vssd1 vccd1 vccd1 sky130_fd_sc_hd__fill_2
XFILLER_0_73_895 vssd1 vssd1 vccd1 vccd1 sky130_fd_sc_hd__fill_1
XANTENNA__17757__A _18517_/A vssd1 vssd1 vccd1 vccd1 sky130_fd_sc_hd__diode_2
XFILLER_0_45_597 vssd1 vssd1 vccd1 vccd1 sky130_ef_sc_hd__decap_12
XFILLER_0_115_452 vssd1 vssd1 vccd1 vccd1 sky130_fd_sc_hd__decap_6
XFILLER_0_143_772 vssd1 vssd1 vccd1 vccd1 sky130_ef_sc_hd__decap_12
XFILLER_0_131_945 vssd1 vssd1 vccd1 vccd1 sky130_fd_sc_hd__decap_6
XFILLER_0_60_567 vssd1 vssd1 vccd1 vccd1 sky130_fd_sc_hd__fill_1
XFILLER_0_14_973 vssd1 vssd1 vccd1 vccd1 sky130_fd_sc_hd__decap_6
XANTENNA__16380__B _16822_/D vssd1 vssd1 vccd1 vccd1 sky130_fd_sc_hd__diode_2
XFILLER_0_130_444 vssd1 vssd1 vccd1 vccd1 sky130_fd_sc_hd__fill_2
XFILLER_0_13_461 vssd1 vssd1 vccd1 vccd1 sky130_ef_sc_hd__decap_12
XFILLER_0_103_658 vssd1 vssd1 vccd1 vccd1 sky130_fd_sc_hd__fill_2
XFILLER_0_131_989 vssd1 vssd1 vccd1 vccd1 sky130_ef_sc_hd__decap_12
XFILLER_0_130_477 vssd1 vssd1 vccd1 vccd1 sky130_ef_sc_hd__decap_12
XFILLER_0_7_81 vssd1 vssd1 vccd1 vccd1 sky130_ef_sc_hd__decap_12
XFILLER_0_130_499 vssd1 vssd1 vccd1 vccd1 sky130_ef_sc_hd__decap_12
XFILLER_0_111_691 vssd1 vssd1 vccd1 vccd1 sky130_fd_sc_hd__fill_2
XFILLER_0_99_1033 vssd1 vssd1 vccd1 vccd1 sky130_ef_sc_hd__decap_12
XFILLER_0_110_190 vssd1 vssd1 vccd1 vccd1 sky130_fd_sc_hd__decap_3
X_09938_ _18573_/A _09909_/B _10456_/B vssd1 vssd1 vccd1 vccd1 _12183_/A sky130_fd_sc_hd__o21ai_1
XFILLER_0_99_203 vssd1 vssd1 vccd1 vccd1 sky130_fd_sc_hd__decap_8
XANTENNA__15724__B _17140_/A vssd1 vssd1 vccd1 vccd1 sky130_fd_sc_hd__diode_2
X_09869_ _18517_/B _10199_/A vssd1 vssd1 vccd1 vccd1 _09875_/C sky130_fd_sc_hd__nand2_1
XTAP_3202 vssd1 vccd1 sky130_fd_sc_hd__tapvpwrvgnd_1
XFILLER_0_99_225 vssd1 vssd1 vccd1 vccd1 sky130_fd_sc_hd__fill_2
XTAP_3213 vssd1 vccd1 sky130_fd_sc_hd__tapvpwrvgnd_1
XTAP_3224 vssd1 vccd1 sky130_fd_sc_hd__tapvpwrvgnd_1
X_11900_ _11898_/Y _11646_/B _11899_/Y vssd1 vssd1 vccd1 vccd1 _12153_/A sky130_fd_sc_hd__a21oi_2
XTAP_3235 vssd1 vccd1 sky130_fd_sc_hd__tapvpwrvgnd_1
XFILLER_0_169_113 vssd1 vssd1 vccd1 vccd1 sky130_ef_sc_hd__decap_12
X_12880_ _12882_/A _12882_/B vssd1 vssd1 vccd1 vccd1 _12881_/A sky130_fd_sc_hd__nor2_1
XTAP_2501 vssd1 vccd1 sky130_fd_sc_hd__tapvpwrvgnd_1
XTAP_3246 vssd1 vccd1 sky130_fd_sc_hd__tapvpwrvgnd_1
XTAP_3257 vssd1 vccd1 sky130_fd_sc_hd__tapvpwrvgnd_1
XANTENNA__10868__B _16822_/A vssd1 vssd1 vccd1 vccd1 sky130_fd_sc_hd__diode_2
XTAP_2512 vssd1 vccd1 sky130_fd_sc_hd__tapvpwrvgnd_1
XTAP_3268 vssd1 vccd1 sky130_fd_sc_hd__tapvpwrvgnd_1
XTAP_2523 vssd1 vccd1 sky130_fd_sc_hd__tapvpwrvgnd_1
XTAP_3279 vssd1 vccd1 sky130_fd_sc_hd__tapvpwrvgnd_1
XTAP_2534 vssd1 vccd1 sky130_fd_sc_hd__tapvpwrvgnd_1
X_11831_ _11825_/Y _11831_/B _11831_/C vssd1 vssd1 vccd1 vccd1 _11832_/B sky130_fd_sc_hd__nand3b_1
XTAP_2545 vssd1 vccd1 sky130_fd_sc_hd__tapvpwrvgnd_1
XTAP_1800 vssd1 vccd1 sky130_fd_sc_hd__tapvpwrvgnd_1
XTAP_2556 vssd1 vccd1 sky130_fd_sc_hd__tapvpwrvgnd_1
XTAP_1811 vssd1 vccd1 sky130_fd_sc_hd__tapvpwrvgnd_1
XTAP_1822 vssd1 vccd1 sky130_fd_sc_hd__tapvpwrvgnd_1
XTAP_2567 vssd1 vccd1 sky130_fd_sc_hd__tapvpwrvgnd_1
XFILLER_0_68_656 vssd1 vssd1 vccd1 vccd1 sky130_fd_sc_hd__fill_2
X_14550_ _14551_/B _14551_/A vssd1 vssd1 vccd1 vccd1 _14550_/Y sky130_fd_sc_hd__nand2_1
XTAP_2578 vssd1 vccd1 sky130_fd_sc_hd__tapvpwrvgnd_1
XFILLER_0_68_667 vssd1 vssd1 vccd1 vccd1 sky130_fd_sc_hd__decap_4
XTAP_1833 vssd1 vccd1 sky130_fd_sc_hd__tapvpwrvgnd_1
XTAP_2589 vssd1 vccd1 sky130_fd_sc_hd__tapvpwrvgnd_1
X_11762_ _11762_/A _11762_/B _11762_/C vssd1 vssd1 vccd1 vccd1 _11768_/C sky130_fd_sc_hd__nand3_1
XTAP_1844 vssd1 vccd1 sky130_fd_sc_hd__tapvpwrvgnd_1
XTAP_1855 vssd1 vccd1 sky130_fd_sc_hd__tapvpwrvgnd_1
XFILLER_0_138_533 vssd1 vssd1 vccd1 vccd1 sky130_fd_sc_hd__fill_2
XTAP_1866 vssd1 vccd1 sky130_fd_sc_hd__tapvpwrvgnd_1
XFILLER_0_95_475 vssd1 vssd1 vccd1 vccd1 sky130_fd_sc_hd__fill_2
X_13501_ _13501_/A _13550_/A _13501_/C vssd1 vssd1 vccd1 vccd1 _13549_/B sky130_fd_sc_hd__nand3_2
X_10713_ input62/X _14965_/B vssd1 vssd1 vccd1 vccd1 _10933_/B sky130_fd_sc_hd__nand2_1
XTAP_1877 vssd1 vccd1 sky130_fd_sc_hd__tapvpwrvgnd_1
XFILLER_0_82_103 vssd1 vssd1 vccd1 vccd1 sky130_fd_sc_hd__fill_1
XTAP_1888 vssd1 vccd1 sky130_fd_sc_hd__tapvpwrvgnd_1
XFILLER_0_83_637 vssd1 vssd1 vccd1 vccd1 sky130_fd_sc_hd__decap_3
X_14481_ _14486_/A _14823_/B vssd1 vssd1 vccd1 vccd1 _14485_/A sky130_fd_sc_hd__nand2_1
XANTENNA__10884__A _10884_/A vssd1 vssd1 vccd1 vccd1 sky130_fd_sc_hd__diode_2
X_11693_ _18648_/B _11691_/X _11692_/Y vssd1 vssd1 vccd1 vccd1 _13536_/A sky130_fd_sc_hd__o21ai_1
XFILLER_0_82_125 vssd1 vssd1 vccd1 vccd1 sky130_ef_sc_hd__decap_12
XTAP_1899 vssd1 vccd1 sky130_fd_sc_hd__tapvpwrvgnd_1
XFILLER_0_48_380 vssd1 vssd1 vccd1 vccd1 sky130_fd_sc_hd__fill_2
XFILLER_0_36_531 vssd1 vssd1 vccd1 vccd1 sky130_fd_sc_hd__fill_1
X_16220_ _16220_/A vssd1 vssd1 vccd1 vccd1 _16222_/A sky130_fd_sc_hd__inv_2
X_13432_ _13432_/A _13432_/B _13432_/C vssd1 vssd1 vccd1 vccd1 _13433_/B sky130_fd_sc_hd__nand3_1
X_10644_ _10642_/X _10643_/X _15837_/A vssd1 vssd1 vccd1 vccd1 _10644_/X sky130_fd_sc_hd__mux2_1
XFILLER_0_165_396 vssd1 vssd1 vccd1 vccd1 sky130_fd_sc_hd__fill_2
XFILLER_0_107_953 vssd1 vssd1 vccd1 vccd1 sky130_ef_sc_hd__decap_12
X_16151_ _16151_/A _16151_/B vssd1 vssd1 vccd1 vccd1 _17090_/C sky130_fd_sc_hd__nand2_1
XFILLER_0_23_203 vssd1 vssd1 vccd1 vccd1 sky130_ef_sc_hd__decap_12
XFILLER_0_91_681 vssd1 vssd1 vccd1 vccd1 sky130_fd_sc_hd__fill_2
X_10575_ _10575_/A _10575_/B vssd1 vssd1 vccd1 vccd1 _10575_/Y sky130_fd_sc_hd__nor2_1
XFILLER_0_24_737 vssd1 vssd1 vccd1 vccd1 sky130_ef_sc_hd__decap_12
XFILLER_0_3_609 vssd1 vssd1 vccd1 vccd1 sky130_fd_sc_hd__decap_6
XFILLER_0_91_692 vssd1 vssd1 vccd1 vccd1 sky130_fd_sc_hd__decap_3
X_13363_ _13363_/A _13363_/B vssd1 vssd1 vccd1 vccd1 _13366_/A sky130_fd_sc_hd__nand2_1
XFILLER_0_134_761 vssd1 vssd1 vccd1 vccd1 sky130_fd_sc_hd__fill_1
XFILLER_0_23_225 vssd1 vssd1 vccd1 vccd1 sky130_ef_sc_hd__decap_12
X_15102_ _15104_/C vssd1 vssd1 vccd1 vccd1 _15103_/B sky130_fd_sc_hd__inv_2
XFILLER_0_122_923 vssd1 vssd1 vccd1 vccd1 sky130_fd_sc_hd__fill_1
XFILLER_0_106_474 vssd1 vssd1 vccd1 vccd1 sky130_fd_sc_hd__fill_2
X_12314_ _12314_/A _12314_/B vssd1 vssd1 vccd1 vccd1 _12315_/B sky130_fd_sc_hd__nand2_1
X_16082_ _16083_/A _16083_/B vssd1 vssd1 vccd1 vccd1 _16356_/B sky130_fd_sc_hd__or2_1
XANTENNA__17386__B _18572_/B vssd1 vssd1 vccd1 vccd1 sky130_fd_sc_hd__diode_2
XFILLER_0_121_411 vssd1 vssd1 vccd1 vccd1 sky130_fd_sc_hd__fill_1
XFILLER_0_51_567 vssd1 vssd1 vccd1 vccd1 sky130_fd_sc_hd__decap_4
XFILLER_0_51_578 vssd1 vssd1 vccd1 vccd1 sky130_fd_sc_hd__decap_8
X_13294_ _13295_/A _13295_/B _13296_/A vssd1 vssd1 vccd1 vccd1 _13300_/B sky130_fd_sc_hd__nand3_1
XFILLER_0_51_589 vssd1 vssd1 vccd1 vccd1 sky130_fd_sc_hd__fill_1
XFILLER_0_107_1033 vssd1 vssd1 vccd1 vccd1 sky130_fd_sc_hd__decap_8
X_15033_ _15369_/B _15033_/B _15033_/C vssd1 vssd1 vccd1 vccd1 _15379_/C sky130_fd_sc_hd__nand3_2
XFILLER_0_32_781 vssd1 vssd1 vccd1 vccd1 sky130_ef_sc_hd__decap_12
X_12245_ _12538_/A _12246_/B _12506_/A vssd1 vssd1 vccd1 vccd1 _12273_/A sky130_fd_sc_hd__nand3_1
XFILLER_0_43_1021 vssd1 vssd1 vccd1 vccd1 sky130_ef_sc_hd__decap_12
XFILLER_0_139_39 vssd1 vssd1 vccd1 vccd1 sky130_fd_sc_hd__decap_6
XFILLER_0_121_488 vssd1 vssd1 vccd1 vccd1 sky130_fd_sc_hd__fill_1
XFILLER_0_121_499 vssd1 vssd1 vccd1 vccd1 sky130_fd_sc_hd__fill_2
X_12176_ _11938_/A _11937_/A _12175_/X vssd1 vssd1 vccd1 vccd1 _12178_/A sky130_fd_sc_hd__o21ai_1
XFILLER_0_102_680 vssd1 vssd1 vccd1 vccd1 sky130_ef_sc_hd__decap_12
X_11127_ _16232_/A _15306_/B vssd1 vssd1 vccd1 vccd1 _11130_/B sky130_fd_sc_hd__nand2_1
XANTENNA__10124__A _16293_/A vssd1 vssd1 vccd1 vccd1 sky130_fd_sc_hd__diode_2
X_16984_ _18517_/B _18479_/D _16983_/C vssd1 vssd1 vccd1 vccd1 _16989_/C sky130_fd_sc_hd__o21ai_2
XFILLER_0_155_27 vssd1 vssd1 vccd1 vccd1 sky130_ef_sc_hd__decap_12
X_15935_ _15937_/B vssd1 vssd1 vccd1 vccd1 _15936_/B sky130_fd_sc_hd__inv_2
X_11058_ _18662_/B _10872_/X _11252_/A _11034_/X _11057_/X vssd1 vssd1 vccd1 vccd1
+ _11058_/X sky130_fd_sc_hd__a311o_4
XFILLER_0_3_39 vssd1 vssd1 vccd1 vccd1 sky130_ef_sc_hd__decap_12
XFILLER_0_64_14 vssd1 vssd1 vccd1 vccd1 sky130_fd_sc_hd__fill_2
XFILLER_0_64_36 vssd1 vssd1 vccd1 vccd1 sky130_fd_sc_hd__decap_6
X_10009_ _10009_/A _18649_/A vssd1 vssd1 vccd1 vccd1 _10009_/Y sky130_fd_sc_hd__nand2_1
X_18654_ _13541_/Y _17936_/B _18651_/X _13832_/Y _18653_/X vssd1 vssd1 vccd1 vccd1
+ _18655_/A sky130_fd_sc_hd__a221o_1
X_15866_ _15866_/A _15866_/B vssd1 vssd1 vccd1 vccd1 _15867_/B sky130_fd_sc_hd__or2_1
XFILLER_0_149_809 vssd1 vssd1 vccd1 vccd1 sky130_ef_sc_hd__decap_12
X_17605_ _17605_/A _17605_/B vssd1 vssd1 vccd1 vccd1 _17607_/A sky130_fd_sc_hd__nand2_1
XFILLER_0_87_921 vssd1 vssd1 vccd1 vccd1 sky130_ef_sc_hd__decap_12
X_14817_ _14817_/A _14817_/B _14819_/A vssd1 vssd1 vccd1 vccd1 _14827_/B sky130_fd_sc_hd__nand3_1
X_18585_ _18585_/A _18585_/B vssd1 vssd1 vccd1 vccd1 _18586_/B sky130_fd_sc_hd__nand2_1
X_15797_ _15797_/A _15797_/B vssd1 vssd1 vccd1 vccd1 _15860_/C sky130_fd_sc_hd__nand2_2
XFILLER_0_171_15 vssd1 vssd1 vccd1 vccd1 sky130_ef_sc_hd__decap_12
XFILLER_0_58_133 vssd1 vssd1 vccd1 vccd1 sky130_fd_sc_hd__decap_6
XFILLER_0_59_656 vssd1 vssd1 vccd1 vccd1 sky130_fd_sc_hd__fill_2
XFILLER_0_87_965 vssd1 vssd1 vccd1 vccd1 sky130_ef_sc_hd__decap_12
X_17536_ _17536_/A vssd1 vssd1 vccd1 vccd1 _17733_/B sky130_fd_sc_hd__inv_2
XFILLER_0_114_1037 vssd1 vssd1 vccd1 vccd1 sky130_ef_sc_hd__decap_12
X_14748_ _14755_/C vssd1 vssd1 vccd1 vccd1 _14752_/B sky130_fd_sc_hd__inv_2
XFILLER_0_129_511 vssd1 vssd1 vccd1 vccd1 sky130_fd_sc_hd__fill_1
XFILLER_0_80_35 vssd1 vssd1 vccd1 vccd1 sky130_fd_sc_hd__fill_1
XFILLER_0_46_306 vssd1 vssd1 vccd1 vccd1 sky130_fd_sc_hd__fill_2
XANTENNA__12993__B _17258_/C vssd1 vssd1 vccd1 vccd1 sky130_fd_sc_hd__diode_2
XFILLER_0_157_853 vssd1 vssd1 vccd1 vccd1 sky130_ef_sc_hd__decap_12
XANTENNA__16465__B _16465_/B vssd1 vssd1 vccd1 vccd1 sky130_fd_sc_hd__diode_2
XFILLER_0_73_103 vssd1 vssd1 vccd1 vccd1 sky130_fd_sc_hd__fill_2
X_17467_ _17467_/A _17467_/B vssd1 vssd1 vccd1 vccd1 _17606_/A sky130_fd_sc_hd__nand2_1
X_14679_ _14679_/A _14679_/B _14679_/C vssd1 vssd1 vccd1 vccd1 _14686_/C sky130_fd_sc_hd__nand3_1
XFILLER_0_11_1009 vssd1 vssd1 vccd1 vccd1 sky130_ef_sc_hd__decap_12
XFILLER_0_73_125 vssd1 vssd1 vccd1 vccd1 sky130_fd_sc_hd__fill_1
XFILLER_0_80_79 vssd1 vssd1 vccd1 vccd1 sky130_fd_sc_hd__decap_4
XFILLER_0_144_503 vssd1 vssd1 vccd1 vccd1 sky130_fd_sc_hd__decap_4
XFILLER_0_129_577 vssd1 vssd1 vccd1 vccd1 sky130_fd_sc_hd__decap_8
XFILLER_0_13_51 vssd1 vssd1 vccd1 vccd1 sky130_fd_sc_hd__decap_4
XFILLER_0_157_897 vssd1 vssd1 vccd1 vccd1 sky130_ef_sc_hd__decap_12
X_16418_ _16418_/A _16418_/B vssd1 vssd1 vccd1 vccd1 _16732_/A sky130_fd_sc_hd__nand2_1
XFILLER_0_156_374 vssd1 vssd1 vccd1 vccd1 sky130_ef_sc_hd__decap_12
XFILLER_0_27_553 vssd1 vssd1 vccd1 vccd1 sky130_fd_sc_hd__decap_6
XFILLER_0_116_216 vssd1 vssd1 vccd1 vccd1 sky130_ef_sc_hd__decap_12
X_17398_ _17398_/A _17398_/B vssd1 vssd1 vccd1 vccd1 _17404_/A sky130_fd_sc_hd__nand2_1
XFILLER_0_73_169 vssd1 vssd1 vccd1 vccd1 sky130_fd_sc_hd__decap_8
XFILLER_0_104_97 vssd1 vssd1 vccd1 vccd1 sky130_ef_sc_hd__decap_12
XFILLER_0_172_867 vssd1 vssd1 vccd1 vccd1 sky130_fd_sc_hd__fill_1
XFILLER_0_144_558 vssd1 vssd1 vccd1 vccd1 sky130_ef_sc_hd__decap_12
XFILLER_0_42_501 vssd1 vssd1 vccd1 vccd1 sky130_fd_sc_hd__decap_8
XFILLER_0_82_670 vssd1 vssd1 vccd1 vccd1 sky130_fd_sc_hd__decap_6
XFILLER_0_55_895 vssd1 vssd1 vccd1 vccd1 sky130_fd_sc_hd__fill_1
X_16349_ _16350_/B _16350_/A vssd1 vssd1 vccd1 vccd1 _16657_/A sky130_fd_sc_hd__or2_1
XFILLER_0_27_597 vssd1 vssd1 vccd1 vccd1 sky130_ef_sc_hd__decap_12
XFILLER_0_6_469 vssd1 vssd1 vccd1 vccd1 sky130_fd_sc_hd__decap_6
XFILLER_0_125_761 vssd1 vssd1 vccd1 vccd1 sky130_ef_sc_hd__decap_12
XFILLER_0_124_260 vssd1 vssd1 vccd1 vccd1 sky130_ef_sc_hd__decap_12
XFILLER_0_120_41 vssd1 vssd1 vccd1 vccd1 sky130_fd_sc_hd__decap_8
XFILLER_0_125_794 vssd1 vssd1 vccd1 vccd1 sky130_ef_sc_hd__decap_12
XFILLER_0_140_731 vssd1 vssd1 vccd1 vccd1 sky130_ef_sc_hd__decap_12
XFILLER_0_113_945 vssd1 vssd1 vccd1 vccd1 sky130_fd_sc_hd__decap_6
XFILLER_0_42_589 vssd1 vssd1 vccd1 vccd1 sky130_ef_sc_hd__decap_12
XFILLER_0_11_921 vssd1 vssd1 vccd1 vccd1 sky130_ef_sc_hd__decap_12
X_18019_ _18292_/B _18292_/C _18021_/B _18022_/C vssd1 vssd1 vccd1 vccd1 _18029_/A
+ sky130_fd_sc_hd__and4_1
XFILLER_0_160_1035 vssd1 vssd1 vccd1 vccd1 sky130_fd_sc_hd__fill_1