* NGSPICE file created from CF_SRAM_1024x32_wrapper.ext - technology: sky130A

* Black-box entry subcircuit for sky130_ef_sc_hd__decap_12 abstract view
.subckt sky130_ef_sc_hd__decap_12 VGND VNB VPB VPWR
.ends

* Black-box entry subcircuit for sky130_fd_sc_hd__fill_1 abstract view
.subckt sky130_fd_sc_hd__fill_1 VGND VNB VPB VPWR
.ends

* Black-box entry subcircuit for sky130_fd_sc_hd__decap_6 abstract view
.subckt sky130_fd_sc_hd__decap_6 VGND VNB VPB VPWR
.ends

* Black-box entry subcircuit for sky130_fd_sc_hd__decap_4 abstract view
.subckt sky130_fd_sc_hd__decap_4 VGND VNB VPB VPWR
.ends

* Black-box entry subcircuit for sky130_fd_sc_hd__decap_8 abstract view
.subckt sky130_fd_sc_hd__decap_8 VGND VNB VPB VPWR
.ends

* Black-box entry subcircuit for sky130_fd_sc_hd__tapvpwrvgnd_1 abstract view
.subckt sky130_fd_sc_hd__tapvpwrvgnd_1 VGND VPWR
.ends

* Black-box entry subcircuit for sky130_fd_sc_hd__diode_2 abstract view
.subckt sky130_fd_sc_hd__diode_2 DIODE VGND VNB VPB VPWR
.ends

* Black-box entry subcircuit for sky130_fd_sc_hd__clkbuf_4 abstract view
.subckt sky130_fd_sc_hd__clkbuf_4 A VGND VNB VPB VPWR X
.ends

* Black-box entry subcircuit for sky130_fd_sc_hd__decap_3 abstract view
.subckt sky130_fd_sc_hd__decap_3 VGND VNB VPB VPWR
.ends

* Black-box entry subcircuit for sky130_fd_sc_hd__fill_2 abstract view
.subckt sky130_fd_sc_hd__fill_2 VGND VNB VPB VPWR
.ends

* Black-box entry subcircuit for sky130_fd_sc_hd__buf_4 abstract view
.subckt sky130_fd_sc_hd__buf_4 A VGND VNB VPB VPWR X
.ends

* Black-box entry subcircuit for sky130_fd_sc_hd__buf_2 abstract view
.subckt sky130_fd_sc_hd__buf_2 A VGND VNB VPB VPWR X
.ends

* Black-box entry subcircuit for sky130_fd_sc_hd__clkbuf_2 abstract view
.subckt sky130_fd_sc_hd__clkbuf_2 A VGND VNB VPB VPWR X
.ends

* Black-box entry subcircuit for sky130_fd_sc_hd__buf_6 abstract view
.subckt sky130_fd_sc_hd__buf_6 A VGND VNB VPB VPWR X
.ends

* Black-box entry subcircuit for sky130_fd_sc_hd__clkbuf_8 abstract view
.subckt sky130_fd_sc_hd__clkbuf_8 A VGND VNB VPB VPWR X
.ends

* Black-box entry subcircuit for CF_SRAM_1024x32 abstract view
.subckt CF_SRAM_1024x32 DO[16] BEN[16] DO[17] BEN[17] DO[18] BEN[18] DO[19] BEN[19]
+ DO[20] BEN[20] DO[21] BEN[21] DO[22] BEN[22] DO[23] BEN[23] DO[24] BEN[24] DO[25]
+ BEN[25] DO[26] BEN[26] DO[27] BEN[27] DO[28] BEN[28] DO[29] BEN[29] DO[30] BEN[30]
+ DO[31] BEN[31] AD[0] AD[1] AD[2] WLBI WLOFF CLKin EN R_WB SM TM ScanInDR ScanOutCC
+ ScanInDL DO[9] BEN[9] DO[10] BEN[10] DO[11] BEN[11] DO[12] BEN[12] DO[13] BEN[13]
+ DO[14] BEN[14] DO[15] BEN[15] BEN[8] AD[3] AD[4] AD[5] AD[6] AD[7] AD[8] AD[9] ScanInCC
+ DO[0] BEN[0] DO[1] BEN[1] DO[2] BEN[2] DO[3] BEN[3] DO[4] BEN[4] DO[5] BEN[5] DO[6]
+ BEN[6] DO[7] BEN[7] DO[8] DI[3] DI[12] DI[0] DI[4] DI[14] DI[11] DI[5] DI[1] DI[9]
+ DI[6] DI[15] DI[2] DI[7] DI[13] DI[10] DI[8] DI[23] DI[27] DI[19] DI[21] DI[28]
+ DI[24] DI[18] DI[29] DI[16] DI[25] DI[30] DI[22] DI[20] DI[26] DI[17] DI[31] vnb
+ vpwrm vpwra vpwrp vgnd vpb vpwrpc vpwrac
.ends

.subckt CF_SRAM_1024x32_wrapper AD[0] AD[1] AD[2] AD[3] AD[4] AD[5] AD[6] AD[7] AD[8]
+ AD[9] BEN[0] BEN[10] BEN[11] BEN[12] BEN[13] BEN[14] BEN[15] BEN[16] BEN[17] BEN[18]
+ BEN[19] BEN[1] BEN[20] BEN[21] BEN[22] BEN[23] BEN[24] BEN[25] BEN[26] BEN[27] BEN[28]
+ BEN[29] BEN[2] BEN[30] BEN[31] BEN[3] BEN[4] BEN[5] BEN[6] BEN[7] BEN[8] BEN[9]
+ CLKin DI[0] DI[10] DI[11] DI[12] DI[13] DI[14] DI[15] DI[16] DI[17] DI[18] DI[19]
+ DI[1] DI[20] DI[21] DI[22] DI[23] DI[24] DI[25] DI[26] DI[27] DI[28] DI[29] DI[2]
+ DI[30] DI[31] DI[3] DI[4] DI[5] DI[6] DI[7] DI[8] DI[9] DO[0] DO[10] DO[11] DO[12]
+ DO[13] DO[14] DO[15] DO[16] DO[17] DO[18] DO[19] DO[1] DO[20] DO[21] DO[22] DO[23]
+ DO[24] DO[25] DO[26] DO[27] DO[28] DO[29] DO[2] DO[30] DO[31] DO[3] DO[4] DO[5]
+ DO[6] DO[7] DO[8] DO[9] EN R_WB SM ScanInCC ScanInDL ScanInDR ScanOutCC TM VGND
+ VPWR WLBI WLOFF vpwrac vpwrpc
XFILLER_0_7_81 VGND VGND VPWR VPWR sky130_ef_sc_hd__decap_12
XFILLER_0_33_715 VGND VGND VPWR VPWR sky130_ef_sc_hd__decap_12
XFILLER_0_41_781 VGND VGND VPWR VPWR sky130_ef_sc_hd__decap_12
XFILLER_0_134_783 VGND VGND VPWR VPWR sky130_fd_sc_hd__fill_1
XFILLER_0_3_609 VGND VGND VPWR VPWR sky130_fd_sc_hd__decap_6
XFILLER_0_24_715 VGND VGND VPWR VPWR sky130_ef_sc_hd__decap_12
XFILLER_0_99_781 VGND VGND VPWR VPWR sky130_ef_sc_hd__decap_12
XFILLER_0_117_739 VGND VGND VPWR VPWR sky130_ef_sc_hd__decap_12
XFILLER_0_140_753 VGND VGND VPWR VPWR sky130_ef_sc_hd__decap_12
XFILLER_0_6_469 VGND VGND VPWR VPWR sky130_fd_sc_hd__decap_6
XFILLER_0_15_715 VGND VGND VPWR VPWR sky130_ef_sc_hd__decap_12
XFILLER_0_23_781 VGND VGND VPWR VPWR sky130_ef_sc_hd__decap_12
XFILLER_0_30_729 VGND VGND VPWR VPWR sky130_ef_sc_hd__decap_12
XFILLER_0_140_797 VGND VGND VPWR VPWR sky130_fd_sc_hd__decap_4
XFILLER_0_116_783 VGND VGND VPWR VPWR sky130_fd_sc_hd__fill_1
XFILLER_0_88_729 VGND VGND VPWR VPWR sky130_ef_sc_hd__decap_12
XFILLER_0_122_753 VGND VGND VPWR VPWR sky130_ef_sc_hd__decap_12
XFILLER_0_3_417 VGND VGND VPWR VPWR sky130_ef_sc_hd__decap_12
XFILLER_0_12_729 VGND VGND VPWR VPWR sky130_ef_sc_hd__decap_12
XFILLER_0_122_797 VGND VGND VPWR VPWR sky130_fd_sc_hd__decap_4
XFILLER_0_87_751 VGND VGND VPWR VPWR sky130_fd_sc_hd__decap_4
XFILLER_0_6_233 VGND VGND VPWR VPWR sky130_ef_sc_hd__decap_12
XFILLER_0_6_277 VGND VGND VPWR VPWR sky130_ef_sc_hd__decap_12
XFILLER_0_11_751 VGND VGND VPWR VPWR sky130_fd_sc_hd__decap_4
XFILLER_0_104_753 VGND VGND VPWR VPWR sky130_ef_sc_hd__decap_12
XFILLER_0_104_797 VGND VGND VPWR VPWR sky130_fd_sc_hd__decap_4
XFILLER_0_69_751 VGND VGND VPWR VPWR sky130_fd_sc_hd__decap_4
XFILLER_0_0_29 VGND VGND VPWR VPWR sky130_fd_sc_hd__decap_8
XFILLER_0_84_765 VGND VGND VPWR VPWR sky130_ef_sc_hd__decap_12
XFILLER_0_3_225 VGND VGND VPWR VPWR sky130_ef_sc_hd__decap_12
XFILLER_0_4_737 VGND VGND VPWR VPWR sky130_ef_sc_hd__decap_12
XFILLER_0_7_553 VGND VGND VPWR VPWR sky130_fd_sc_hd__decap_6
XFILLER_0_7_597 VGND VGND VPWR VPWR sky130_ef_sc_hd__decap_12
XFILLER_0_81_757 VGND VGND VPWR VPWR sky130_ef_sc_hd__decap_12
XFILLER_0_66_765 VGND VGND VPWR VPWR sky130_ef_sc_hd__decap_12
XFILLER_0_1_729 VGND VGND VPWR VPWR sky130_ef_sc_hd__decap_12
XTAP_507 VGND VPWR sky130_fd_sc_hd__tapvpwrvgnd_1
XTAP_529 VGND VPWR sky130_fd_sc_hd__tapvpwrvgnd_1
XTAP_518 VGND VPWR sky130_fd_sc_hd__tapvpwrvgnd_1
XFILLER_0_4_501 VGND VGND VPWR VPWR sky130_ef_sc_hd__decap_12
XFILLER_0_4_545 VGND VGND VPWR VPWR sky130_ef_sc_hd__decap_12
XFILLER_0_4_589 VGND VGND VPWR VPWR sky130_ef_sc_hd__decap_12
XFILLER_0_63_757 VGND VGND VPWR VPWR sky130_ef_sc_hd__decap_12
XFILLER_0_48_765 VGND VGND VPWR VPWR sky130_ef_sc_hd__decap_12
XFILLER_0_7_361 VGND VGND VPWR VPWR sky130_ef_sc_hd__decap_12
XANTENNA_5 BEN[13] VGND VGND VPWR VPWR sky130_fd_sc_hd__diode_2
XTAP_337 VGND VPWR sky130_fd_sc_hd__tapvpwrvgnd_1
XFILLER_0_1_559 VGND VGND VPWR VPWR sky130_fd_sc_hd__fill_1
XTAP_348 VGND VPWR sky130_fd_sc_hd__tapvpwrvgnd_1
XTAP_326 VGND VPWR sky130_fd_sc_hd__tapvpwrvgnd_1
XTAP_315 VGND VPWR sky130_fd_sc_hd__tapvpwrvgnd_1
XFILLER_0_6_39 VGND VGND VPWR VPWR sky130_fd_sc_hd__decap_4
XTAP_359 VGND VPWR sky130_fd_sc_hd__tapvpwrvgnd_1
XFILLER_0_8_125 VGND VGND VPWR VPWR sky130_ef_sc_hd__decap_12
XFILLER_0_8_169 VGND VGND VPWR VPWR sky130_ef_sc_hd__decap_12
XFILLER_0_60_727 VGND VGND VPWR VPWR sky130_fd_sc_hd__fill_1
XFILLER_0_45_757 VGND VGND VPWR VPWR sky130_ef_sc_hd__decap_12
XFILLER_0_138_715 VGND VGND VPWR VPWR sky130_ef_sc_hd__decap_12
XFILLER_0_51_727 VGND VGND VPWR VPWR sky130_ef_sc_hd__decap_12
Xoutput97 net97 VGND VGND VPWR VPWR DO[1] sky130_fd_sc_hd__clkbuf_4
Xoutput86 net86 VGND VGND VPWR VPWR DO[0] sky130_fd_sc_hd__clkbuf_4
XFILLER_0_129_715 VGND VGND VPWR VPWR sky130_ef_sc_hd__decap_12
XPHY_170 VGND VGND VPWR VPWR sky130_fd_sc_hd__decap_3
XFILLER_0_152_751 VGND VGND VPWR VPWR sky130_fd_sc_hd__fill_2
XFILLER_0_144_729 VGND VGND VPWR VPWR sky130_ef_sc_hd__decap_12
XFILLER_0_137_781 VGND VGND VPWR VPWR sky130_ef_sc_hd__decap_12
XPHY_192 VGND VGND VPWR VPWR sky130_fd_sc_hd__decap_3
XPHY_181 VGND VGND VPWR VPWR sky130_fd_sc_hd__decap_3
XFILLER_0_27_757 VGND VGND VPWR VPWR sky130_ef_sc_hd__decap_12
XFILLER_0_42_727 VGND VGND VPWR VPWR sky130_fd_sc_hd__fill_1
XFILLER_0_143_751 VGND VGND VPWR VPWR sky130_fd_sc_hd__decap_4
XFILLER_0_33_727 VGND VGND VPWR VPWR sky130_ef_sc_hd__decap_12
XFILLER_0_5_673 VGND VGND VPWR VPWR sky130_ef_sc_hd__decap_12
XFILLER_0_7_93 VGND VGND VPWR VPWR sky130_ef_sc_hd__decap_12
XFILLER_0_41_793 VGND VGND VPWR VPWR sky130_fd_sc_hd__decap_8
XFILLER_0_126_729 VGND VGND VPWR VPWR sky130_ef_sc_hd__decap_12
XFILLER_0_119_781 VGND VGND VPWR VPWR sky130_ef_sc_hd__decap_12
XFILLER_0_2_109 VGND VGND VPWR VPWR sky130_ef_sc_hd__decap_12
XFILLER_0_24_727 VGND VGND VPWR VPWR sky130_fd_sc_hd__fill_1
XFILLER_0_99_793 VGND VGND VPWR VPWR sky130_fd_sc_hd__decap_8
XFILLER_0_3_29 VGND VGND VPWR VPWR sky130_fd_sc_hd__fill_2
XFILLER_0_15_727 VGND VGND VPWR VPWR sky130_ef_sc_hd__decap_12
XFILLER_0_140_765 VGND VGND VPWR VPWR sky130_ef_sc_hd__decap_12
XFILLER_0_140_721 VGND VGND VPWR VPWR sky130_fd_sc_hd__decap_6
XFILLER_0_125_751 VGND VGND VPWR VPWR sky130_fd_sc_hd__decap_4
XFILLER_0_2_643 VGND VGND VPWR VPWR sky130_fd_sc_hd__fill_1
XFILLER_0_23_793 VGND VGND VPWR VPWR sky130_fd_sc_hd__decap_8
XFILLER_0_108_729 VGND VGND VPWR VPWR sky130_ef_sc_hd__decap_12
XFILLER_0_96_741 VGND VGND VPWR VPWR sky130_ef_sc_hd__decap_12
XFILLER_0_96_785 VGND VGND VPWR VPWR sky130_ef_sc_hd__decap_12
XFILLER_0_122_765 VGND VGND VPWR VPWR sky130_ef_sc_hd__decap_12
XFILLER_0_107_751 VGND VGND VPWR VPWR sky130_fd_sc_hd__decap_4
XFILLER_0_3_429 VGND VGND VPWR VPWR sky130_ef_sc_hd__decap_12
XFILLER_0_20_741 VGND VGND VPWR VPWR sky130_ef_sc_hd__decap_12
XFILLER_0_20_785 VGND VGND VPWR VPWR sky130_ef_sc_hd__decap_12
XFILLER_0_6_245 VGND VGND VPWR VPWR sky130_fd_sc_hd__decap_6
XFILLER_0_6_289 VGND VGND VPWR VPWR sky130_ef_sc_hd__decap_12
XFILLER_0_4_83 VGND VGND VPWR VPWR sky130_fd_sc_hd__fill_1
XFILLER_0_93_755 VGND VGND VPWR VPWR sky130_fd_sc_hd__fill_1
XFILLER_0_78_785 VGND VGND VPWR VPWR sky130_ef_sc_hd__decap_12
XFILLER_0_78_741 VGND VGND VPWR VPWR sky130_ef_sc_hd__decap_12
XFILLER_0_104_765 VGND VGND VPWR VPWR sky130_ef_sc_hd__decap_12
XFILLER_0_84_777 VGND VGND VPWR VPWR sky130_fd_sc_hd__decap_6
XFILLER_0_4_749 VGND VGND VPWR VPWR sky130_fd_sc_hd__decap_6
XFILLER_0_3_237 VGND VGND VPWR VPWR sky130_ef_sc_hd__decap_12
XFILLER_0_90_703 VGND VGND VPWR VPWR sky130_ef_sc_hd__decap_12
XFILLER_0_75_755 VGND VGND VPWR VPWR sky130_fd_sc_hd__fill_1
XFILLER_0_101_757 VGND VGND VPWR VPWR sky130_ef_sc_hd__decap_12
XFILLER_0_81_769 VGND VGND VPWR VPWR sky130_ef_sc_hd__decap_12
XFILLER_0_81_703 VGND VGND VPWR VPWR sky130_ef_sc_hd__decap_12
XFILLER_0_66_777 VGND VGND VPWR VPWR sky130_fd_sc_hd__decap_6
XTAP_519 VGND VPWR sky130_fd_sc_hd__tapvpwrvgnd_1
XTAP_508 VGND VPWR sky130_fd_sc_hd__tapvpwrvgnd_1
XFILLER_0_72_703 VGND VGND VPWR VPWR sky130_ef_sc_hd__decap_12
XFILLER_0_57_755 VGND VGND VPWR VPWR sky130_fd_sc_hd__fill_1
XFILLER_0_4_513 VGND VGND VPWR VPWR sky130_ef_sc_hd__decap_12
XFILLER_0_4_557 VGND VGND VPWR VPWR sky130_ef_sc_hd__decap_12
XFILLER_0_0_796 VGND VGND VPWR VPWR sky130_fd_sc_hd__decap_4
XFILLER_0_0_785 VGND VGND VPWR VPWR sky130_fd_sc_hd__decap_4
XFILLER_0_1_51 VGND VGND VPWR VPWR sky130_fd_sc_hd__decap_4
XFILLER_0_63_769 VGND VGND VPWR VPWR sky130_ef_sc_hd__decap_12
XFILLER_0_63_703 VGND VGND VPWR VPWR sky130_ef_sc_hd__decap_12
XFILLER_0_48_777 VGND VGND VPWR VPWR sky130_fd_sc_hd__decap_6
XFILLER_0_7_373 VGND VGND VPWR VPWR sky130_ef_sc_hd__decap_12
XFILLER_0_54_703 VGND VGND VPWR VPWR sky130_ef_sc_hd__decap_12
XFILLER_0_39_755 VGND VGND VPWR VPWR sky130_fd_sc_hd__fill_1
XANTENNA_6 BEN[14] VGND VGND VPWR VPWR sky130_fd_sc_hd__diode_2
XFILLER_0_1_505 VGND VGND VPWR VPWR sky130_ef_sc_hd__decap_12
XTAP_338 VGND VPWR sky130_fd_sc_hd__tapvpwrvgnd_1
XTAP_349 VGND VPWR sky130_fd_sc_hd__tapvpwrvgnd_1
XTAP_327 VGND VPWR sky130_fd_sc_hd__tapvpwrvgnd_1
XTAP_316 VGND VPWR sky130_fd_sc_hd__tapvpwrvgnd_1
XFILLER_0_45_769 VGND VGND VPWR VPWR sky130_ef_sc_hd__decap_12
XFILLER_0_45_703 VGND VGND VPWR VPWR sky130_ef_sc_hd__decap_12
XFILLER_0_8_137 VGND VGND VPWR VPWR sky130_fd_sc_hd__decap_3
XFILLER_0_4_321 VGND VGND VPWR VPWR sky130_ef_sc_hd__decap_12
XFILLER_0_4_365 VGND VGND VPWR VPWR sky130_ef_sc_hd__decap_12
XFILLER_0_0_571 VGND VGND VPWR VPWR sky130_ef_sc_hd__decap_12
XFILLER_0_138_727 VGND VGND VPWR VPWR sky130_fd_sc_hd__fill_1
XFILLER_0_36_703 VGND VGND VPWR VPWR sky130_ef_sc_hd__decap_12
XFILLER_0_51_739 VGND VGND VPWR VPWR sky130_ef_sc_hd__decap_12
XFILLER_0_7_181 VGND VGND VPWR VPWR sky130_ef_sc_hd__decap_12
Xoutput98 net98 VGND VGND VPWR VPWR DO[20] sky130_fd_sc_hd__buf_4
Xoutput87 net87 VGND VGND VPWR VPWR DO[10] sky130_fd_sc_hd__buf_4
XFILLER_0_137_793 VGND VGND VPWR VPWR sky130_fd_sc_hd__decap_8
XFILLER_0_129_727 VGND VGND VPWR VPWR sky130_ef_sc_hd__decap_12
XPHY_193 VGND VGND VPWR VPWR sky130_fd_sc_hd__decap_3
XPHY_182 VGND VGND VPWR VPWR sky130_fd_sc_hd__decap_3
XPHY_171 VGND VGND VPWR VPWR sky130_fd_sc_hd__decap_3
XPHY_160 VGND VGND VPWR VPWR sky130_fd_sc_hd__decap_3
XFILLER_0_27_703 VGND VGND VPWR VPWR sky130_ef_sc_hd__decap_12
XFILLER_0_27_769 VGND VGND VPWR VPWR sky130_ef_sc_hd__decap_12
XFILLER_0_152_785 VGND VGND VPWR VPWR sky130_ef_sc_hd__decap_12
XFILLER_0_50_783 VGND VGND VPWR VPWR sky130_fd_sc_hd__fill_1
XFILLER_0_1_335 VGND VGND VPWR VPWR sky130_fd_sc_hd__fill_1
XFILLER_0_18_703 VGND VGND VPWR VPWR sky130_ef_sc_hd__decap_12
XFILLER_0_5_641 VGND VGND VPWR VPWR sky130_ef_sc_hd__decap_12
XFILLER_0_33_739 VGND VGND VPWR VPWR sky130_ef_sc_hd__decap_12
XFILLER_0_2_9 VGND VGND VPWR VPWR sky130_fd_sc_hd__fill_2
XFILLER_0_4_195 VGND VGND VPWR VPWR sky130_fd_sc_hd__fill_1
XFILLER_0_5_685 VGND VGND VPWR VPWR sky130_ef_sc_hd__decap_12
XTAP_680 VGND VPWR sky130_fd_sc_hd__tapvpwrvgnd_1
XFILLER_0_134_785 VGND VGND VPWR VPWR sky130_fd_sc_hd__decap_8
XFILLER_0_134_741 VGND VGND VPWR VPWR sky130_ef_sc_hd__decap_12
XFILLER_0_119_793 VGND VGND VPWR VPWR sky130_fd_sc_hd__decap_8
XFILLER_0_32_783 VGND VGND VPWR VPWR sky130_fd_sc_hd__fill_1
XFILLER_0_15_739 VGND VGND VPWR VPWR sky130_ef_sc_hd__decap_12
XFILLER_0_140_777 VGND VGND VPWR VPWR sky130_fd_sc_hd__decap_6
XFILLER_0_2_699 VGND VGND VPWR VPWR sky130_fd_sc_hd__fill_1
XFILLER_0_131_755 VGND VGND VPWR VPWR sky130_fd_sc_hd__fill_1
XFILLER_0_116_785 VGND VGND VPWR VPWR sky130_ef_sc_hd__decap_12
XFILLER_0_116_741 VGND VGND VPWR VPWR sky130_ef_sc_hd__decap_12
XFILLER_0_14_783 VGND VGND VPWR VPWR sky130_fd_sc_hd__fill_1
XFILLER_0_96_753 VGND VGND VPWR VPWR sky130_ef_sc_hd__decap_12
XFILLER_0_96_797 VGND VGND VPWR VPWR sky130_fd_sc_hd__decap_4
XFILLER_0_122_777 VGND VGND VPWR VPWR sky130_fd_sc_hd__decap_6
XFILLER_0_20_753 VGND VGND VPWR VPWR sky130_ef_sc_hd__decap_12
XFILLER_0_20_797 VGND VGND VPWR VPWR sky130_fd_sc_hd__decap_4
XFILLER_0_113_755 VGND VGND VPWR VPWR sky130_fd_sc_hd__fill_1
XFILLER_0_4_51 VGND VGND VPWR VPWR sky130_ef_sc_hd__decap_12
XFILLER_0_78_753 VGND VGND VPWR VPWR sky130_ef_sc_hd__decap_12
XFILLER_0_78_797 VGND VGND VPWR VPWR sky130_fd_sc_hd__decap_4
XFILLER_0_104_777 VGND VGND VPWR VPWR sky130_fd_sc_hd__decap_6
XFILLER_0_3_205 VGND VGND VPWR VPWR sky130_ef_sc_hd__decap_12
XFILLER_0_3_249 VGND VGND VPWR VPWR sky130_ef_sc_hd__decap_12
XFILLER_0_110_703 VGND VGND VPWR VPWR sky130_ef_sc_hd__decap_12
XFILLER_0_90_715 VGND VGND VPWR VPWR sky130_ef_sc_hd__decap_12
XFILLER_0_101_703 VGND VGND VPWR VPWR sky130_ef_sc_hd__decap_12
XFILLER_0_3_783 VGND VGND VPWR VPWR sky130_fd_sc_hd__fill_1
XFILLER_0_101_769 VGND VGND VPWR VPWR sky130_ef_sc_hd__decap_12
XFILLER_0_81_715 VGND VGND VPWR VPWR sky130_ef_sc_hd__decap_12
XFILLER_0_1_709 VGND VGND VPWR VPWR sky130_ef_sc_hd__decap_12
XTAP_509 VGND VPWR sky130_fd_sc_hd__tapvpwrvgnd_1
XFILLER_0_72_715 VGND VGND VPWR VPWR sky130_ef_sc_hd__decap_12
XFILLER_0_4_525 VGND VGND VPWR VPWR sky130_fd_sc_hd__decap_6
XFILLER_0_4_569 VGND VGND VPWR VPWR sky130_ef_sc_hd__decap_12
XFILLER_0_71_781 VGND VGND VPWR VPWR sky130_ef_sc_hd__decap_12
XFILLER_0_63_715 VGND VGND VPWR VPWR sky130_ef_sc_hd__decap_12
XFILLER_0_7_385 VGND VGND VPWR VPWR sky130_fd_sc_hd__decap_6
XFILLER_0_54_715 VGND VGND VPWR VPWR sky130_ef_sc_hd__decap_12
XANTENNA_7 BEN[15] VGND VGND VPWR VPWR sky130_fd_sc_hd__diode_2
XFILLER_0_1_517 VGND VGND VPWR VPWR sky130_ef_sc_hd__decap_12
XFILLER_0_6_19 VGND VGND VPWR VPWR sky130_fd_sc_hd__fill_2
XTAP_339 VGND VPWR sky130_fd_sc_hd__tapvpwrvgnd_1
XTAP_328 VGND VPWR sky130_fd_sc_hd__tapvpwrvgnd_1
XTAP_317 VGND VPWR sky130_fd_sc_hd__tapvpwrvgnd_1
XFILLER_0_155_761 VGND VGND VPWR VPWR sky130_fd_sc_hd__fill_2
XFILLER_0_60_729 VGND VGND VPWR VPWR sky130_ef_sc_hd__decap_12
XFILLER_0_45_715 VGND VGND VPWR VPWR sky130_ef_sc_hd__decap_12
XFILLER_0_4_333 VGND VGND VPWR VPWR sky130_ef_sc_hd__decap_12
XFILLER_0_53_781 VGND VGND VPWR VPWR sky130_ef_sc_hd__decap_12
XFILLER_0_0_583 VGND VGND VPWR VPWR sky130_fd_sc_hd__decap_4
XFILLER_0_0_561 VGND VGND VPWR VPWR sky130_fd_sc_hd__decap_4
XFILLER_0_4_377 VGND VGND VPWR VPWR sky130_ef_sc_hd__decap_12
XFILLER_0_36_715 VGND VGND VPWR VPWR sky130_ef_sc_hd__decap_12
XFILLER_0_146_783 VGND VGND VPWR VPWR sky130_fd_sc_hd__fill_1
XFILLER_0_7_193 VGND VGND VPWR VPWR sky130_ef_sc_hd__decap_12
Xoutput99 net99 VGND VGND VPWR VPWR DO[21] sky130_fd_sc_hd__buf_4
Xoutput88 net88 VGND VGND VPWR VPWR DO[11] sky130_fd_sc_hd__buf_4
XFILLER_0_129_739 VGND VGND VPWR VPWR sky130_ef_sc_hd__decap_12
XPHY_194 VGND VGND VPWR VPWR sky130_fd_sc_hd__decap_3
XPHY_183 VGND VGND VPWR VPWR sky130_fd_sc_hd__decap_3
XPHY_172 VGND VGND VPWR VPWR sky130_fd_sc_hd__decap_3
XPHY_161 VGND VGND VPWR VPWR sky130_fd_sc_hd__decap_3
XPHY_150 VGND VGND VPWR VPWR sky130_fd_sc_hd__decap_3
XFILLER_0_27_715 VGND VGND VPWR VPWR sky130_ef_sc_hd__decap_12
XFILLER_0_42_729 VGND VGND VPWR VPWR sky130_ef_sc_hd__decap_12
XFILLER_0_152_797 VGND VGND VPWR VPWR sky130_fd_sc_hd__decap_4
XFILLER_0_35_781 VGND VGND VPWR VPWR sky130_ef_sc_hd__decap_12
XFILLER_0_135_709 VGND VGND VPWR VPWR sky130_ef_sc_hd__decap_12
XFILLER_0_18_715 VGND VGND VPWR VPWR sky130_ef_sc_hd__decap_12
XFILLER_0_128_783 VGND VGND VPWR VPWR sky130_fd_sc_hd__fill_1
XFILLER_0_4_141 VGND VGND VPWR VPWR sky130_ef_sc_hd__decap_12
XFILLER_0_5_653 VGND VGND VPWR VPWR sky130_ef_sc_hd__decap_12
XFILLER_0_5_697 VGND VGND VPWR VPWR sky130_ef_sc_hd__decap_12
XFILLER_0_41_751 VGND VGND VPWR VPWR sky130_fd_sc_hd__decap_4
XTAP_670 VGND VPWR sky130_fd_sc_hd__tapvpwrvgnd_1
XFILLER_0_0_391 VGND VGND VPWR VPWR sky130_fd_sc_hd__fill_1
XTAP_681 VGND VPWR sky130_fd_sc_hd__tapvpwrvgnd_1
XFILLER_0_24_729 VGND VGND VPWR VPWR sky130_ef_sc_hd__decap_12
XFILLER_0_134_753 VGND VGND VPWR VPWR sky130_ef_sc_hd__decap_12
XFILLER_0_17_781 VGND VGND VPWR VPWR sky130_ef_sc_hd__decap_12
XFILLER_0_99_751 VGND VGND VPWR VPWR sky130_fd_sc_hd__decap_4
XFILLER_0_2_601 VGND VGND VPWR VPWR sky130_ef_sc_hd__decap_12
XFILLER_0_23_751 VGND VGND VPWR VPWR sky130_fd_sc_hd__decap_4
XFILLER_0_2_645 VGND VGND VPWR VPWR sky130_ef_sc_hd__decap_12
XFILLER_0_1_111 VGND VGND VPWR VPWR sky130_fd_sc_hd__fill_1
XFILLER_0_116_797 VGND VGND VPWR VPWR sky130_fd_sc_hd__decap_4
XFILLER_0_116_753 VGND VGND VPWR VPWR sky130_ef_sc_hd__decap_12
XFILLER_0_5_461 VGND VGND VPWR VPWR sky130_ef_sc_hd__decap_12
XFILLER_0_96_765 VGND VGND VPWR VPWR sky130_ef_sc_hd__decap_12
XFILLER_0_20_765 VGND VGND VPWR VPWR sky130_ef_sc_hd__decap_12
XFILLER_0_2_475 VGND VGND VPWR VPWR sky130_fd_sc_hd__fill_1
XFILLER_0_4_63 VGND VGND VPWR VPWR sky130_ef_sc_hd__decap_12
XFILLER_0_4_85 VGND VGND VPWR VPWR sky130_ef_sc_hd__decap_12
XFILLER_0_78_765 VGND VGND VPWR VPWR sky130_ef_sc_hd__decap_12
XFILLER_0_93_757 VGND VGND VPWR VPWR sky130_ef_sc_hd__decap_12
XFILLER_0_6_781 VGND VGND VPWR VPWR sky130_ef_sc_hd__decap_12
XFILLER_0_110_715 VGND VGND VPWR VPWR sky130_ef_sc_hd__decap_12
XFILLER_0_3_217 VGND VGND VPWR VPWR sky130_fd_sc_hd__decap_6
XFILLER_0_90_727 VGND VGND VPWR VPWR sky130_fd_sc_hd__fill_1
XFILLER_0_75_757 VGND VGND VPWR VPWR sky130_ef_sc_hd__decap_12
XFILLER_0_101_715 VGND VGND VPWR VPWR sky130_ef_sc_hd__decap_12
XFILLER_0_81_727 VGND VGND VPWR VPWR sky130_ef_sc_hd__decap_12
XFILLER_0_0_209 VGND VGND VPWR VPWR sky130_fd_sc_hd__decap_6
XFILLER_0_72_727 VGND VGND VPWR VPWR sky130_fd_sc_hd__fill_1
XFILLER_0_57_757 VGND VGND VPWR VPWR sky130_ef_sc_hd__decap_12
XFILLER_0_8_309 VGND VGND VPWR VPWR sky130_ef_sc_hd__decap_12
XFILLER_0_0_754 VGND VGND VPWR VPWR sky130_fd_sc_hd__fill_2
XFILLER_0_0_721 VGND VGND VPWR VPWR sky130_fd_sc_hd__decap_6
XFILLER_0_71_793 VGND VGND VPWR VPWR sky130_fd_sc_hd__decap_8
XFILLER_0_63_727 VGND VGND VPWR VPWR sky130_ef_sc_hd__decap_12
XPHY_310 VGND VGND VPWR VPWR sky130_fd_sc_hd__decap_3
XFILLER_0_149_781 VGND VGND VPWR VPWR sky130_ef_sc_hd__decap_12
XFILLER_0_54_727 VGND VGND VPWR VPWR sky130_fd_sc_hd__fill_1
XFILLER_0_39_757 VGND VGND VPWR VPWR sky130_ef_sc_hd__decap_12
XANTENNA_8 BEN[16] VGND VGND VPWR VPWR sky130_fd_sc_hd__diode_2
XFILLER_0_1_529 VGND VGND VPWR VPWR sky130_ef_sc_hd__decap_12
XTAP_329 VGND VPWR sky130_fd_sc_hd__tapvpwrvgnd_1
XTAP_318 VGND VPWR sky130_fd_sc_hd__tapvpwrvgnd_1
XFILLER_0_147_707 VGND VGND VPWR VPWR sky130_fd_sc_hd__fill_2
XFILLER_0_53_793 VGND VGND VPWR VPWR sky130_fd_sc_hd__decap_8
XFILLER_0_45_727 VGND VGND VPWR VPWR sky130_ef_sc_hd__decap_12
XFILLER_0_4_301 VGND VGND VPWR VPWR sky130_fd_sc_hd__decap_6
XFILLER_0_4_345 VGND VGND VPWR VPWR sky130_ef_sc_hd__decap_12
XFILLER_0_4_389 VGND VGND VPWR VPWR sky130_ef_sc_hd__decap_12
XFILLER_0_138_729 VGND VGND VPWR VPWR sky130_ef_sc_hd__decap_12
XFILLER_0_8_673 VGND VGND VPWR VPWR sky130_ef_sc_hd__decap_12
XFILLER_0_36_727 VGND VGND VPWR VPWR sky130_fd_sc_hd__fill_1
XFILLER_0_7_161 VGND VGND VPWR VPWR sky130_fd_sc_hd__decap_6
Xoutput89 net89 VGND VGND VPWR VPWR DO[12] sky130_fd_sc_hd__buf_4
XFILLER_0_152_743 VGND VGND VPWR VPWR sky130_fd_sc_hd__fill_2
XFILLER_0_137_751 VGND VGND VPWR VPWR sky130_fd_sc_hd__decap_4
XPHY_195 VGND VGND VPWR VPWR sky130_fd_sc_hd__decap_3
XPHY_184 VGND VGND VPWR VPWR sky130_fd_sc_hd__decap_3
XPHY_173 VGND VGND VPWR VPWR sky130_fd_sc_hd__decap_3
XPHY_162 VGND VGND VPWR VPWR sky130_fd_sc_hd__decap_3
XPHY_151 VGND VGND VPWR VPWR sky130_fd_sc_hd__decap_3
XPHY_140 VGND VGND VPWR VPWR sky130_fd_sc_hd__decap_3
XFILLER_0_27_727 VGND VGND VPWR VPWR sky130_ef_sc_hd__decap_12
XFILLER_0_35_793 VGND VGND VPWR VPWR sky130_fd_sc_hd__decap_8
XFILLER_0_50_785 VGND VGND VPWR VPWR sky130_ef_sc_hd__decap_12
XFILLER_0_50_741 VGND VGND VPWR VPWR sky130_ef_sc_hd__decap_12
XFILLER_0_1_337 VGND VGND VPWR VPWR sky130_ef_sc_hd__decap_12
XFILLER_0_18_727 VGND VGND VPWR VPWR sky130_fd_sc_hd__fill_1
XFILLER_0_4_153 VGND VGND VPWR VPWR sky130_ef_sc_hd__decap_12
XFILLER_0_4_197 VGND VGND VPWR VPWR sky130_ef_sc_hd__decap_12
XFILLER_0_5_665 VGND VGND VPWR VPWR sky130_fd_sc_hd__decap_6
XFILLER_0_7_41 VGND VGND VPWR VPWR sky130_fd_sc_hd__fill_2
XTAP_682 VGND VPWR sky130_fd_sc_hd__tapvpwrvgnd_1
XTAP_671 VGND VPWR sky130_fd_sc_hd__tapvpwrvgnd_1
XTAP_660 VGND VPWR sky130_fd_sc_hd__tapvpwrvgnd_1
XFILLER_0_134_765 VGND VGND VPWR VPWR sky130_ef_sc_hd__decap_12
XFILLER_0_119_751 VGND VGND VPWR VPWR sky130_fd_sc_hd__decap_4
XFILLER_0_17_793 VGND VGND VPWR VPWR sky130_fd_sc_hd__decap_8
XFILLER_0_32_741 VGND VGND VPWR VPWR sky130_ef_sc_hd__decap_12
XFILLER_0_32_785 VGND VGND VPWR VPWR sky130_ef_sc_hd__decap_12
XFILLER_0_2_657 VGND VGND VPWR VPWR sky130_ef_sc_hd__decap_12
XFILLER_0_2_613 VGND VGND VPWR VPWR sky130_ef_sc_hd__decap_12
XFILLER_0_1_167 VGND VGND VPWR VPWR sky130_fd_sc_hd__fill_1
XFILLER_0_116_765 VGND VGND VPWR VPWR sky130_ef_sc_hd__decap_12
XFILLER_0_131_757 VGND VGND VPWR VPWR sky130_ef_sc_hd__decap_12
XFILLER_0_5_473 VGND VGND VPWR VPWR sky130_ef_sc_hd__decap_12
XFILLER_0_14_741 VGND VGND VPWR VPWR sky130_ef_sc_hd__decap_12
XFILLER_0_14_785 VGND VGND VPWR VPWR sky130_ef_sc_hd__decap_12
XTAP_490 VGND VPWR sky130_fd_sc_hd__tapvpwrvgnd_1
XFILLER_0_96_777 VGND VGND VPWR VPWR sky130_fd_sc_hd__decap_6
XFILLER_0_20_777 VGND VGND VPWR VPWR sky130_fd_sc_hd__decap_6
XFILLER_0_87_755 VGND VGND VPWR VPWR sky130_fd_sc_hd__fill_1
XFILLER_0_7_727 VGND VGND VPWR VPWR sky130_fd_sc_hd__fill_1
XFILLER_0_113_757 VGND VGND VPWR VPWR sky130_ef_sc_hd__decap_12
XFILLER_0_2_421 VGND VGND VPWR VPWR sky130_ef_sc_hd__decap_12
XFILLER_0_11_755 VGND VGND VPWR VPWR sky130_fd_sc_hd__fill_1
XFILLER_0_4_75 VGND VGND VPWR VPWR sky130_fd_sc_hd__decap_8
XFILLER_0_4_97 VGND VGND VPWR VPWR sky130_ef_sc_hd__decap_12
XFILLER_0_93_703 VGND VGND VPWR VPWR sky130_ef_sc_hd__decap_12
XFILLER_0_78_777 VGND VGND VPWR VPWR sky130_fd_sc_hd__decap_6
XFILLER_0_93_769 VGND VGND VPWR VPWR sky130_ef_sc_hd__decap_12
XFILLER_0_5_281 VGND VGND VPWR VPWR sky130_ef_sc_hd__decap_12
XFILLER_0_6_793 VGND VGND VPWR VPWR sky130_fd_sc_hd__fill_2
XFILLER_0_69_755 VGND VGND VPWR VPWR sky130_fd_sc_hd__fill_1
XFILLER_0_84_703 VGND VGND VPWR VPWR sky130_ef_sc_hd__decap_12
XFILLER_0_110_727 VGND VGND VPWR VPWR sky130_fd_sc_hd__fill_1
XFILLER_0_75_703 VGND VGND VPWR VPWR sky130_ef_sc_hd__decap_12
XFILLER_0_75_769 VGND VGND VPWR VPWR sky130_ef_sc_hd__decap_12
XFILLER_0_101_727 VGND VGND VPWR VPWR sky130_ef_sc_hd__decap_12
XFILLER_0_2_251 VGND VGND VPWR VPWR sky130_fd_sc_hd__fill_1
XFILLER_0_3_741 VGND VGND VPWR VPWR sky130_ef_sc_hd__decap_12
XFILLER_0_3_785 VGND VGND VPWR VPWR sky130_ef_sc_hd__decap_12
XFILLER_0_81_739 VGND VGND VPWR VPWR sky130_ef_sc_hd__decap_12
XFILLER_0_66_703 VGND VGND VPWR VPWR sky130_ef_sc_hd__decap_12
XFILLER_0_57_703 VGND VGND VPWR VPWR sky130_ef_sc_hd__decap_12
XFILLER_0_57_769 VGND VGND VPWR VPWR sky130_ef_sc_hd__decap_12
XFILLER_0_80_783 VGND VGND VPWR VPWR sky130_fd_sc_hd__fill_1
XFILLER_0_63_739 VGND VGND VPWR VPWR sky130_ef_sc_hd__decap_12
XFILLER_0_48_703 VGND VGND VPWR VPWR sky130_ef_sc_hd__decap_12
XPHY_300 VGND VGND VPWR VPWR sky130_fd_sc_hd__decap_3
XFILLER_0_39_703 VGND VGND VPWR VPWR sky130_ef_sc_hd__decap_12
XPHY_311 VGND VGND VPWR VPWR sky130_fd_sc_hd__decap_3
XFILLER_0_149_793 VGND VGND VPWR VPWR sky130_fd_sc_hd__decap_8
XFILLER_0_39_769 VGND VGND VPWR VPWR sky130_ef_sc_hd__decap_12
XANTENNA_9 BEN[17] VGND VGND VPWR VPWR sky130_fd_sc_hd__diode_2
XFILLER_0_62_783 VGND VGND VPWR VPWR sky130_fd_sc_hd__fill_1
XTAP_319 VGND VPWR sky130_fd_sc_hd__tapvpwrvgnd_1
XFILLER_0_155_785 VGND VGND VPWR VPWR sky130_fd_sc_hd__fill_2
XFILLER_0_45_739 VGND VGND VPWR VPWR sky130_ef_sc_hd__decap_12
XFILLER_0_4_357 VGND VGND VPWR VPWR sky130_fd_sc_hd__decap_6
XFILLER_0_0_596 VGND VGND VPWR VPWR sky130_ef_sc_hd__decap_12
XFILLER_0_146_785 VGND VGND VPWR VPWR sky130_ef_sc_hd__decap_12
XFILLER_0_146_741 VGND VGND VPWR VPWR sky130_ef_sc_hd__decap_12
XFILLER_0_8_641 VGND VGND VPWR VPWR sky130_fd_sc_hd__decap_3
XFILLER_0_8_685 VGND VGND VPWR VPWR sky130_ef_sc_hd__decap_12
XFILLER_0_44_783 VGND VGND VPWR VPWR sky130_fd_sc_hd__fill_1
XPHY_152 VGND VGND VPWR VPWR sky130_fd_sc_hd__decap_3
XPHY_141 VGND VGND VPWR VPWR sky130_fd_sc_hd__decap_3
XPHY_130 VGND VGND VPWR VPWR sky130_fd_sc_hd__decap_3
XFILLER_0_152_755 VGND VGND VPWR VPWR sky130_fd_sc_hd__fill_2
XPHY_196 VGND VGND VPWR VPWR sky130_fd_sc_hd__decap_3
XPHY_185 VGND VGND VPWR VPWR sky130_fd_sc_hd__decap_3
XPHY_174 VGND VGND VPWR VPWR sky130_fd_sc_hd__decap_3
XPHY_163 VGND VGND VPWR VPWR sky130_fd_sc_hd__decap_3
XFILLER_0_50_753 VGND VGND VPWR VPWR sky130_ef_sc_hd__decap_12
XFILLER_0_1_305 VGND VGND VPWR VPWR sky130_ef_sc_hd__decap_12
XFILLER_0_27_739 VGND VGND VPWR VPWR sky130_ef_sc_hd__decap_12
XFILLER_0_50_797 VGND VGND VPWR VPWR sky130_fd_sc_hd__decap_4
XFILLER_0_1_349 VGND VGND VPWR VPWR sky130_ef_sc_hd__decap_12
XFILLER_0_128_785 VGND VGND VPWR VPWR sky130_ef_sc_hd__decap_12
XFILLER_0_128_741 VGND VGND VPWR VPWR sky130_ef_sc_hd__decap_12
XFILLER_0_143_755 VGND VGND VPWR VPWR sky130_fd_sc_hd__fill_1
XFILLER_0_4_121 VGND VGND VPWR VPWR sky130_ef_sc_hd__decap_12
XFILLER_0_4_165 VGND VGND VPWR VPWR sky130_ef_sc_hd__decap_12
XFILLER_0_7_31 VGND VGND VPWR VPWR sky130_fd_sc_hd__decap_4
XFILLER_0_7_53 VGND VGND VPWR VPWR sky130_fd_sc_hd__decap_3
XFILLER_0_26_783 VGND VGND VPWR VPWR sky130_fd_sc_hd__fill_1
XTAP_683 VGND VPWR sky130_fd_sc_hd__tapvpwrvgnd_1
XTAP_672 VGND VPWR sky130_fd_sc_hd__tapvpwrvgnd_1
XTAP_661 VGND VPWR sky130_fd_sc_hd__tapvpwrvgnd_1
XTAP_650 VGND VPWR sky130_fd_sc_hd__tapvpwrvgnd_1
XFILLER_0_0_371 VGND VGND VPWR VPWR sky130_ef_sc_hd__decap_12
XFILLER_0_134_777 VGND VGND VPWR VPWR sky130_fd_sc_hd__decap_6
XFILLER_0_32_753 VGND VGND VPWR VPWR sky130_ef_sc_hd__decap_12
XFILLER_0_32_797 VGND VGND VPWR VPWR sky130_fd_sc_hd__decap_4
XFILLER_0_6_419 VGND VGND VPWR VPWR sky130_fd_sc_hd__fill_1
XFILLER_0_125_755 VGND VGND VPWR VPWR sky130_fd_sc_hd__fill_1
XFILLER_0_2_669 VGND VGND VPWR VPWR sky130_ef_sc_hd__decap_12
XFILLER_0_2_625 VGND VGND VPWR VPWR sky130_ef_sc_hd__decap_12
XFILLER_0_1_113 VGND VGND VPWR VPWR sky130_ef_sc_hd__decap_12
XFILLER_0_131_703 VGND VGND VPWR VPWR sky130_ef_sc_hd__decap_12
XFILLER_0_116_777 VGND VGND VPWR VPWR sky130_fd_sc_hd__decap_6
XFILLER_0_5_441 VGND VGND VPWR VPWR sky130_fd_sc_hd__decap_6
XFILLER_0_131_769 VGND VGND VPWR VPWR sky130_ef_sc_hd__decap_12
XFILLER_0_0_9 VGND VGND VPWR VPWR sky130_fd_sc_hd__fill_2
XFILLER_0_5_485 VGND VGND VPWR VPWR sky130_ef_sc_hd__decap_12
XFILLER_0_14_753 VGND VGND VPWR VPWR sky130_ef_sc_hd__decap_12
XFILLER_0_14_797 VGND VGND VPWR VPWR sky130_fd_sc_hd__decap_4
XTAP_480 VGND VPWR sky130_fd_sc_hd__tapvpwrvgnd_1
XTAP_491 VGND VPWR sky130_fd_sc_hd__tapvpwrvgnd_1
XFILLER_0_122_703 VGND VGND VPWR VPWR sky130_ef_sc_hd__decap_12
XFILLER_0_107_755 VGND VGND VPWR VPWR sky130_fd_sc_hd__fill_1
XFILLER_0_113_703 VGND VGND VPWR VPWR sky130_ef_sc_hd__decap_12
XFILLER_0_113_769 VGND VGND VPWR VPWR sky130_ef_sc_hd__decap_12
XFILLER_0_2_477 VGND VGND VPWR VPWR sky130_ef_sc_hd__decap_12
XFILLER_0_2_433 VGND VGND VPWR VPWR sky130_ef_sc_hd__decap_12
XFILLER_0_4_21 VGND VGND VPWR VPWR sky130_fd_sc_hd__decap_4
XFILLER_0_4_43 VGND VGND VPWR VPWR sky130_fd_sc_hd__fill_2
XFILLER_0_93_715 VGND VGND VPWR VPWR sky130_ef_sc_hd__decap_12
XFILLER_0_104_703 VGND VGND VPWR VPWR sky130_ef_sc_hd__decap_12
XFILLER_0_5_293 VGND VGND VPWR VPWR sky130_ef_sc_hd__decap_12
XFILLER_0_84_715 VGND VGND VPWR VPWR sky130_ef_sc_hd__decap_12