* NGSPICE file created from div_pipe_rasterizer_m.ext - technology: sky130A

* Black-box entry subcircuit for sky130_fd_sc_hd__fill_2 abstract view
.subckt sky130_fd_sc_hd__fill_2 VGND VNB VPB VPWR
.ends

* Black-box entry subcircuit for sky130_fd_sc_hd__diode_2 abstract view
.subckt sky130_fd_sc_hd__diode_2 DIODE VGND VNB VPB VPWR
.ends

* Black-box entry subcircuit for sky130_fd_sc_hd__o21ai_1 abstract view
.subckt sky130_fd_sc_hd__o21ai_1 A1 A2 B1 VGND VNB VPB VPWR Y
.ends

* Black-box entry subcircuit for sky130_fd_sc_hd__nand3_1 abstract view
.subckt sky130_fd_sc_hd__nand3_1 A B C VGND VNB VPB VPWR Y
.ends

* Black-box entry subcircuit for sky130_fd_sc_hd__nand2_1 abstract view
.subckt sky130_fd_sc_hd__nand2_1 A B VGND VNB VPB VPWR Y
.ends

* Black-box entry subcircuit for sky130_fd_sc_hd__decap_6 abstract view
.subckt sky130_fd_sc_hd__decap_6 VGND VNB VPB VPWR
.ends

* Black-box entry subcircuit for sky130_fd_sc_hd__decap_4 abstract view
.subckt sky130_fd_sc_hd__decap_4 VGND VNB VPB VPWR
.ends

* Black-box entry subcircuit for sky130_fd_sc_hd__fill_1 abstract view
.subckt sky130_fd_sc_hd__fill_1 VGND VNB VPB VPWR
.ends

* Black-box entry subcircuit for sky130_fd_sc_hd__inv_2 abstract view
.subckt sky130_fd_sc_hd__inv_2 A VGND VNB VPB VPWR Y
.ends

* Black-box entry subcircuit for sky130_fd_sc_hd__clkbuf_1 abstract view
.subckt sky130_fd_sc_hd__clkbuf_1 A VGND VNB VPB VPWR X
.ends

* Black-box entry subcircuit for sky130_fd_sc_hd__a21o_1 abstract view
.subckt sky130_fd_sc_hd__a21o_1 A1 A2 B1 VGND VNB VPB VPWR X
.ends

* Black-box entry subcircuit for sky130_fd_sc_hd__decap_3 abstract view
.subckt sky130_fd_sc_hd__decap_3 VGND VNB VPB VPWR
.ends

* Black-box entry subcircuit for sky130_fd_sc_hd__dfrtp_4 abstract view
.subckt sky130_fd_sc_hd__dfrtp_4 CLK D RESET_B VGND VNB VPB VPWR Q
.ends

* Black-box entry subcircuit for sky130_fd_sc_hd__dfrtp_1 abstract view
.subckt sky130_fd_sc_hd__dfrtp_1 CLK D RESET_B VGND VNB VPB VPWR Q
.ends

* Black-box entry subcircuit for sky130_fd_sc_hd__decap_8 abstract view
.subckt sky130_fd_sc_hd__decap_8 VGND VNB VPB VPWR
.ends

* Black-box entry subcircuit for sky130_fd_sc_hd__dlygate4sd3_1 abstract view
.subckt sky130_fd_sc_hd__dlygate4sd3_1 A VGND VNB VPB VPWR X
.ends

* Black-box entry subcircuit for sky130_fd_sc_hd__nor2_1 abstract view
.subckt sky130_fd_sc_hd__nor2_1 A B VGND VNB VPB VPWR Y
.ends

* Black-box entry subcircuit for sky130_fd_sc_hd__mux2_1 abstract view
.subckt sky130_fd_sc_hd__mux2_1 A0 A1 S VGND VNB VPB VPWR X
.ends

* Black-box entry subcircuit for sky130_fd_sc_hd__o221a_1 abstract view
.subckt sky130_fd_sc_hd__o221a_1 A1 A2 B1 B2 C1 VGND VNB VPB VPWR X
.ends

* Black-box entry subcircuit for sky130_fd_sc_hd__tapvpwrvgnd_1 abstract view
.subckt sky130_fd_sc_hd__tapvpwrvgnd_1 VGND VPWR
.ends

* Black-box entry subcircuit for sky130_fd_sc_hd__and3_1 abstract view
.subckt sky130_fd_sc_hd__and3_1 A B C VGND VNB VPB VPWR X
.ends

* Black-box entry subcircuit for sky130_fd_sc_hd__nand2_2 abstract view
.subckt sky130_fd_sc_hd__nand2_2 A B VGND VNB VPB VPWR Y
.ends

* Black-box entry subcircuit for sky130_fd_sc_hd__or3_1 abstract view
.subckt sky130_fd_sc_hd__or3_1 A B C VGND VNB VPB VPWR X
.ends

* Black-box entry subcircuit for sky130_ef_sc_hd__decap_12 abstract view
.subckt sky130_ef_sc_hd__decap_12 VGND VNB VPB VPWR
.ends

* Black-box entry subcircuit for sky130_fd_sc_hd__nand3_2 abstract view
.subckt sky130_fd_sc_hd__nand3_2 A B C VGND VNB VPB VPWR Y
.ends

* Black-box entry subcircuit for sky130_fd_sc_hd__xor2_1 abstract view
.subckt sky130_fd_sc_hd__xor2_1 A B VGND VNB VPB VPWR X
.ends

* Black-box entry subcircuit for sky130_fd_sc_hd__and4_1 abstract view
.subckt sky130_fd_sc_hd__and4_1 A B C D VGND VNB VPB VPWR X
.ends

* Black-box entry subcircuit for sky130_fd_sc_hd__or2_1 abstract view
.subckt sky130_fd_sc_hd__or2_1 A B VGND VNB VPB VPWR X
.ends

* Black-box entry subcircuit for sky130_fd_sc_hd__nand3b_1 abstract view
.subckt sky130_fd_sc_hd__nand3b_1 A_N B C VGND VNB VPB VPWR Y
.ends

* Black-box entry subcircuit for sky130_fd_sc_hd__o21ai_2 abstract view
.subckt sky130_fd_sc_hd__o21ai_2 A1 A2 B1 VGND VNB VPB VPWR Y
.ends

* Black-box entry subcircuit for sky130_fd_sc_hd__buf_4 abstract view
.subckt sky130_fd_sc_hd__buf_4 A VGND VNB VPB VPWR X
.ends

* Black-box entry subcircuit for sky130_fd_sc_hd__clkbuf_8 abstract view
.subckt sky130_fd_sc_hd__clkbuf_8 A VGND VNB VPB VPWR X
.ends

* Black-box entry subcircuit for sky130_fd_sc_hd__and2_1 abstract view
.subckt sky130_fd_sc_hd__and2_1 A B VGND VNB VPB VPWR X
.ends

* Black-box entry subcircuit for sky130_fd_sc_hd__o311a_1 abstract view
.subckt sky130_fd_sc_hd__o311a_1 A1 A2 A3 B1 C1 VGND VNB VPB VPWR X
.ends

* Black-box entry subcircuit for sky130_fd_sc_hd__nor2_2 abstract view
.subckt sky130_fd_sc_hd__nor2_2 A B VGND VNB VPB VPWR Y
.ends

* Black-box entry subcircuit for sky130_fd_sc_hd__or2b_1 abstract view
.subckt sky130_fd_sc_hd__or2b_1 A B_N VGND VNB VPB VPWR X
.ends

* Black-box entry subcircuit for sky130_fd_sc_hd__o21a_1 abstract view
.subckt sky130_fd_sc_hd__o21a_1 A1 A2 B1 VGND VNB VPB VPWR X
.ends

* Black-box entry subcircuit for sky130_fd_sc_hd__a31o_1 abstract view
.subckt sky130_fd_sc_hd__a31o_1 A1 A2 A3 B1 VGND VNB VPB VPWR X
.ends

* Black-box entry subcircuit for sky130_fd_sc_hd__and3b_1 abstract view
.subckt sky130_fd_sc_hd__and3b_1 A_N B C VGND VNB VPB VPWR X
.ends

* Black-box entry subcircuit for sky130_fd_sc_hd__a21bo_1 abstract view
.subckt sky130_fd_sc_hd__a21bo_1 A1 A2 B1_N VGND VNB VPB VPWR X
.ends

* Black-box entry subcircuit for sky130_fd_sc_hd__nand2b_1 abstract view
.subckt sky130_fd_sc_hd__nand2b_1 A_N B VGND VNB VPB VPWR Y
.ends

* Black-box entry subcircuit for sky130_fd_sc_hd__nand3_4 abstract view
.subckt sky130_fd_sc_hd__nand3_4 A B C VGND VNB VPB VPWR Y
.ends

* Black-box entry subcircuit for sky130_fd_sc_hd__a21oi_1 abstract view
.subckt sky130_fd_sc_hd__a21oi_1 A1 A2 B1 VGND VNB VPB VPWR Y
.ends

* Black-box entry subcircuit for sky130_fd_sc_hd__a221o_1 abstract view
.subckt sky130_fd_sc_hd__a221o_1 A1 A2 B1 B2 C1 VGND VNB VPB VPWR X
.ends

* Black-box entry subcircuit for sky130_fd_sc_hd__nand2_4 abstract view
.subckt sky130_fd_sc_hd__nand2_4 A B VGND VNB VPB VPWR Y
.ends

* Black-box entry subcircuit for sky130_fd_sc_hd__buf_6 abstract view
.subckt sky130_fd_sc_hd__buf_6 A VGND VNB VPB VPWR X
.ends

* Black-box entry subcircuit for sky130_fd_sc_hd__a221oi_1 abstract view
.subckt sky130_fd_sc_hd__a221oi_1 A1 A2 B1 B2 C1 VGND VNB VPB VPWR Y
.ends

* Black-box entry subcircuit for sky130_fd_sc_hd__or3b_1 abstract view
.subckt sky130_fd_sc_hd__or3b_1 A B C_N VGND VNB VPB VPWR X
.ends

* Black-box entry subcircuit for sky130_fd_sc_hd__xnor2_1 abstract view
.subckt sky130_fd_sc_hd__xnor2_1 A B VGND VNB VPB VPWR Y
.ends

* Black-box entry subcircuit for sky130_fd_sc_hd__buf_1 abstract view
.subckt sky130_fd_sc_hd__buf_1 A VGND VNB VPB VPWR X
.ends

* Black-box entry subcircuit for sky130_fd_sc_hd__a2bb2o_1 abstract view
.subckt sky130_fd_sc_hd__a2bb2o_1 A1_N A2_N B1 B2 VGND VNB VPB VPWR X
.ends

* Black-box entry subcircuit for sky130_fd_sc_hd__dfrtp_2 abstract view
.subckt sky130_fd_sc_hd__dfrtp_2 CLK D RESET_B VGND VNB VPB VPWR Q
.ends

* Black-box entry subcircuit for sky130_fd_sc_hd__buf_12 abstract view
.subckt sky130_fd_sc_hd__buf_12 A VGND VNB VPB VPWR X
.ends

* Black-box entry subcircuit for sky130_fd_sc_hd__and2b_1 abstract view
.subckt sky130_fd_sc_hd__and2b_1 A_N B VGND VNB VPB VPWR X
.ends

* Black-box entry subcircuit for sky130_fd_sc_hd__clkbuf_16 abstract view
.subckt sky130_fd_sc_hd__clkbuf_16 A VGND VNB VPB VPWR X
.ends

* Black-box entry subcircuit for sky130_fd_sc_hd__clkinvlp_2 abstract view
.subckt sky130_fd_sc_hd__clkinvlp_2 A VGND VNB VPB VPWR Y
.ends

* Black-box entry subcircuit for sky130_fd_sc_hd__inv_4 abstract view
.subckt sky130_fd_sc_hd__inv_4 A VGND VNB VPB VPWR Y
.ends

* Black-box entry subcircuit for sky130_fd_sc_hd__and3_2 abstract view
.subckt sky130_fd_sc_hd__and3_2 A B C VGND VNB VPB VPWR X
.ends

* Black-box entry subcircuit for sky130_fd_sc_hd__clkbuf_2 abstract view
.subckt sky130_fd_sc_hd__clkbuf_2 A VGND VNB VPB VPWR X
.ends

* Black-box entry subcircuit for sky130_fd_sc_hd__dlymetal6s2s_1 abstract view
.subckt sky130_fd_sc_hd__dlymetal6s2s_1 A VGND VNB VPB VPWR X
.ends

* Black-box entry subcircuit for sky130_fd_sc_hd__o221ai_1 abstract view
.subckt sky130_fd_sc_hd__o221ai_1 A1 A2 B1 B2 C1 VGND VNB VPB VPWR Y
.ends

* Black-box entry subcircuit for sky130_fd_sc_hd__a221oi_2 abstract view
.subckt sky130_fd_sc_hd__a221oi_2 A1 A2 B1 B2 C1 VGND VNB VPB VPWR Y
.ends

* Black-box entry subcircuit for sky130_fd_sc_hd__o211ai_2 abstract view
.subckt sky130_fd_sc_hd__o211ai_2 A1 A2 B1 C1 VGND VNB VPB VPWR Y
.ends

* Black-box entry subcircuit for sky130_fd_sc_hd__a21oi_4 abstract view
.subckt sky130_fd_sc_hd__a21oi_4 A1 A2 B1 VGND VNB VPB VPWR Y
.ends

* Black-box entry subcircuit for sky130_fd_sc_hd__a32o_1 abstract view
.subckt sky130_fd_sc_hd__a32o_1 A1 A2 A3 B1 B2 VGND VNB VPB VPWR X
.ends

* Black-box entry subcircuit for sky130_fd_sc_hd__or2_4 abstract view
.subckt sky130_fd_sc_hd__or2_4 A B VGND VNB VPB VPWR X
.ends

* Black-box entry subcircuit for sky130_fd_sc_hd__nor2_4 abstract view
.subckt sky130_fd_sc_hd__nor2_4 A B VGND VNB VPB VPWR Y
.ends

* Black-box entry subcircuit for sky130_fd_sc_hd__a22o_1 abstract view
.subckt sky130_fd_sc_hd__a22o_1 A1 A2 B1 B2 VGND VNB VPB VPWR X
.ends

* Black-box entry subcircuit for sky130_fd_sc_hd__o31ai_1 abstract view
.subckt sky130_fd_sc_hd__o31ai_1 A1 A2 A3 B1 VGND VNB VPB VPWR Y
.ends

* Black-box entry subcircuit for sky130_fd_sc_hd__o2111ai_4 abstract view
.subckt sky130_fd_sc_hd__o2111ai_4 A1 A2 B1 C1 D1 VGND VNB VPB VPWR Y
.ends

* Black-box entry subcircuit for sky130_fd_sc_hd__a211o_1 abstract view
.subckt sky130_fd_sc_hd__a211o_1 A1 A2 B1 C1 VGND VNB VPB VPWR X
.ends

* Black-box entry subcircuit for sky130_fd_sc_hd__and4b_1 abstract view
.subckt sky130_fd_sc_hd__and4b_1 A_N B C D VGND VNB VPB VPWR X
.ends

* Black-box entry subcircuit for sky130_fd_sc_hd__o211a_1 abstract view
.subckt sky130_fd_sc_hd__o211a_1 A1 A2 B1 C1 VGND VNB VPB VPWR X
.ends

* Black-box entry subcircuit for sky130_fd_sc_hd__a21oi_2 abstract view
.subckt sky130_fd_sc_hd__a21oi_2 A1 A2 B1 VGND VNB VPB VPWR Y
.ends

* Black-box entry subcircuit for sky130_fd_sc_hd__buf_8 abstract view
.subckt sky130_fd_sc_hd__buf_8 A VGND VNB VPB VPWR X
.ends

* Black-box entry subcircuit for sky130_fd_sc_hd__or4_1 abstract view
.subckt sky130_fd_sc_hd__or4_1 A B C D VGND VNB VPB VPWR X
.ends

* Black-box entry subcircuit for sky130_fd_sc_hd__o211ai_1 abstract view
.subckt sky130_fd_sc_hd__o211ai_1 A1 A2 B1 C1 VGND VNB VPB VPWR Y
.ends

* Black-box entry subcircuit for sky130_fd_sc_hd__clkinv_4 abstract view
.subckt sky130_fd_sc_hd__clkinv_4 A VGND VNB VPB VPWR Y
.ends

* Black-box entry subcircuit for sky130_fd_sc_hd__a21bo_2 abstract view
.subckt sky130_fd_sc_hd__a21bo_2 A1 A2 B1_N VGND VNB VPB VPWR X
.ends

* Black-box entry subcircuit for sky130_fd_sc_hd__clkinv_8 abstract view
.subckt sky130_fd_sc_hd__clkinv_8 A VGND VNB VPB VPWR Y
.ends

* Black-box entry subcircuit for sky130_fd_sc_hd__o2111a_1 abstract view
.subckt sky130_fd_sc_hd__o2111a_1 A1 A2 B1 C1 D1 VGND VNB VPB VPWR X
.ends

* Black-box entry subcircuit for sky130_fd_sc_hd__a22o_2 abstract view
.subckt sky130_fd_sc_hd__a22o_2 A1 A2 B1 B2 VGND VNB VPB VPWR X
.ends

* Black-box entry subcircuit for sky130_fd_sc_hd__o21bai_1 abstract view
.subckt sky130_fd_sc_hd__o21bai_1 A1 A2 B1_N VGND VNB VPB VPWR Y
.ends

* Black-box entry subcircuit for sky130_fd_sc_hd__nand3b_4 abstract view
.subckt sky130_fd_sc_hd__nand3b_4 A_N B C VGND VNB VPB VPWR Y
.ends

* Black-box entry subcircuit for sky130_fd_sc_hd__nand2_8 abstract view
.subckt sky130_fd_sc_hd__nand2_8 A B VGND VNB VPB VPWR Y
.ends

* Black-box entry subcircuit for sky130_fd_sc_hd__a31oi_1 abstract view
.subckt sky130_fd_sc_hd__a31oi_1 A1 A2 A3 B1 VGND VNB VPB VPWR Y
.ends

* Black-box entry subcircuit for sky130_fd_sc_hd__o311ai_1 abstract view
.subckt sky130_fd_sc_hd__o311ai_1 A1 A2 A3 B1 C1 VGND VNB VPB VPWR Y
.ends

* Black-box entry subcircuit for sky130_fd_sc_hd__nor3_4 abstract view
.subckt sky130_fd_sc_hd__nor3_4 A B C VGND VNB VPB VPWR Y
.ends

* Black-box entry subcircuit for sky130_fd_sc_hd__xnor2_2 abstract view
.subckt sky130_fd_sc_hd__xnor2_2 A B VGND VNB VPB VPWR Y
.ends

* Black-box entry subcircuit for sky130_fd_sc_hd__a31o_2 abstract view
.subckt sky130_fd_sc_hd__a31o_2 A1 A2 A3 B1 VGND VNB VPB VPWR X
.ends

* Black-box entry subcircuit for sky130_fd_sc_hd__a211o_2 abstract view
.subckt sky130_fd_sc_hd__a211o_2 A1 A2 B1 C1 VGND VNB VPB VPWR X
.ends

* Black-box entry subcircuit for sky130_fd_sc_hd__o21a_2 abstract view
.subckt sky130_fd_sc_hd__o21a_2 A1 A2 B1 VGND VNB VPB VPWR X
.ends

* Black-box entry subcircuit for sky130_fd_sc_hd__and2_4 abstract view
.subckt sky130_fd_sc_hd__and2_4 A B VGND VNB VPB VPWR X
.ends

* Black-box entry subcircuit for sky130_fd_sc_hd__dfxtp_1 abstract view
.subckt sky130_fd_sc_hd__dfxtp_1 CLK D VGND VNB VPB VPWR Q
.ends

* Black-box entry subcircuit for sky130_fd_sc_hd__inv_6 abstract view
.subckt sky130_fd_sc_hd__inv_6 A VGND VNB VPB VPWR Y
.ends

* Black-box entry subcircuit for sky130_fd_sc_hd__a21boi_4 abstract view
.subckt sky130_fd_sc_hd__a21boi_4 A1 A2 B1_N VGND VNB VPB VPWR Y
.ends

* Black-box entry subcircuit for sky130_fd_sc_hd__buf_2 abstract view
.subckt sky130_fd_sc_hd__buf_2 A VGND VNB VPB VPWR X
.ends

* Black-box entry subcircuit for sky130_fd_sc_hd__o221ai_2 abstract view
.subckt sky130_fd_sc_hd__o221ai_2 A1 A2 B1 B2 C1 VGND VNB VPB VPWR Y
.ends

* Black-box entry subcircuit for sky130_fd_sc_hd__a31oi_2 abstract view
.subckt sky130_fd_sc_hd__a31oi_2 A1 A2 A3 B1 VGND VNB VPB VPWR Y
.ends

* Black-box entry subcircuit for sky130_fd_sc_hd__or3_2 abstract view
.subckt sky130_fd_sc_hd__or3_2 A B C VGND VNB VPB VPWR X
.ends

* Black-box entry subcircuit for sky130_fd_sc_hd__inv_12 abstract view
.subckt sky130_fd_sc_hd__inv_12 A VGND VNB VPB VPWR Y
.ends

* Black-box entry subcircuit for sky130_fd_sc_hd__xor2_4 abstract view
.subckt sky130_fd_sc_hd__xor2_4 A B VGND VNB VPB VPWR X
.ends

* Black-box entry subcircuit for sky130_fd_sc_hd__or4_4 abstract view
.subckt sky130_fd_sc_hd__or4_4 A B C D VGND VNB VPB VPWR X
.ends

* Black-box entry subcircuit for sky130_fd_sc_hd__o21ai_4 abstract view
.subckt sky130_fd_sc_hd__o21ai_4 A1 A2 B1 VGND VNB VPB VPWR Y
.ends

* Black-box entry subcircuit for sky130_fd_sc_hd__a21boi_1 abstract view
.subckt sky130_fd_sc_hd__a21boi_1 A1 A2 B1_N VGND VNB VPB VPWR Y
.ends

* Black-box entry subcircuit for sky130_fd_sc_hd__conb_1 abstract view
.subckt sky130_fd_sc_hd__conb_1 VGND VNB VPB VPWR HI LO
.ends

* Black-box entry subcircuit for sky130_fd_sc_hd__a41o_1 abstract view
.subckt sky130_fd_sc_hd__a41o_1 A1 A2 A3 A4 B1 VGND VNB VPB VPWR X
.ends

* Black-box entry subcircuit for sky130_fd_sc_hd__or3b_2 abstract view
.subckt sky130_fd_sc_hd__or3b_2 A B C_N VGND VNB VPB VPWR X
.ends

* Black-box entry subcircuit for sky130_fd_sc_hd__o311ai_2 abstract view
.subckt sky130_fd_sc_hd__o311ai_2 A1 A2 A3 B1 C1 VGND VNB VPB VPWR Y
.ends

* Black-box entry subcircuit for sky130_fd_sc_hd__or4_2 abstract view
.subckt sky130_fd_sc_hd__or4_2 A B C D VGND VNB VPB VPWR X
.ends

* Black-box entry subcircuit for sky130_fd_sc_hd__clkbuf_4 abstract view
.subckt sky130_fd_sc_hd__clkbuf_4 A VGND VNB VPB VPWR X
.ends

* Black-box entry subcircuit for sky130_fd_sc_hd__o21ba_1 abstract view
.subckt sky130_fd_sc_hd__o21ba_1 A1 A2 B1_N VGND VNB VPB VPWR X
.ends

* Black-box entry subcircuit for sky130_fd_sc_hd__and2_2 abstract view
.subckt sky130_fd_sc_hd__and2_2 A B VGND VNB VPB VPWR X
.ends

* Black-box entry subcircuit for sky130_fd_sc_hd__clkdlybuf4s25_1 abstract view
.subckt sky130_fd_sc_hd__clkdlybuf4s25_1 A VGND VNB VPB VPWR X
.ends

* Black-box entry subcircuit for sky130_fd_sc_hd__a32o_2 abstract view
.subckt sky130_fd_sc_hd__a32o_2 A1 A2 A3 B1 B2 VGND VNB VPB VPWR X
.ends

* Black-box entry subcircuit for sky130_fd_sc_hd__or2_2 abstract view
.subckt sky130_fd_sc_hd__or2_2 A B VGND VNB VPB VPWR X
.ends

* Black-box entry subcircuit for sky130_fd_sc_hd__o31a_1 abstract view
.subckt sky130_fd_sc_hd__o31a_1 A1 A2 A3 B1 VGND VNB VPB VPWR X
.ends

* Black-box entry subcircuit for sky130_fd_sc_hd__o211ai_4 abstract view
.subckt sky130_fd_sc_hd__o211ai_4 A1 A2 B1 C1 VGND VNB VPB VPWR Y
.ends

* Black-box entry subcircuit for sky130_fd_sc_hd__o22a_1 abstract view
.subckt sky130_fd_sc_hd__o22a_1 A1 A2 B1 B2 VGND VNB VPB VPWR X
.ends

* Black-box entry subcircuit for sky130_fd_sc_hd__nor3_2 abstract view
.subckt sky130_fd_sc_hd__nor3_2 A B C VGND VNB VPB VPWR Y
.ends

* Black-box entry subcircuit for sky130_fd_sc_hd__nand3b_2 abstract view
.subckt sky130_fd_sc_hd__nand3b_2 A_N B C VGND VNB VPB VPWR Y
.ends

* Black-box entry subcircuit for sky130_fd_sc_hd__nor2b_4 abstract view
.subckt sky130_fd_sc_hd__nor2b_4 A B_N VGND VNB VPB VPWR Y
.ends

* Black-box entry subcircuit for sky130_fd_sc_hd__xor2_2 abstract view
.subckt sky130_fd_sc_hd__xor2_2 A B VGND VNB VPB VPWR X
.ends

* Black-box entry subcircuit for sky130_fd_sc_hd__o21bai_2 abstract view
.subckt sky130_fd_sc_hd__o21bai_2 A1 A2 B1_N VGND VNB VPB VPWR Y
.ends

* Black-box entry subcircuit for sky130_fd_sc_hd__nor3_1 abstract view
.subckt sky130_fd_sc_hd__nor3_1 A B C VGND VNB VPB VPWR Y
.ends

* Black-box entry subcircuit for sky130_fd_sc_hd__a21boi_2 abstract view
.subckt sky130_fd_sc_hd__a21boi_2 A1 A2 B1_N VGND VNB VPB VPWR Y
.ends

* Black-box entry subcircuit for sky130_fd_sc_hd__a211oi_1 abstract view
.subckt sky130_fd_sc_hd__a211oi_1 A1 A2 B1 C1 VGND VNB VPB VPWR Y
.ends

* Black-box entry subcircuit for sky130_fd_sc_hd__a2111oi_2 abstract view
.subckt sky130_fd_sc_hd__a2111oi_2 A1 A2 B1 C1 D1 VGND VNB VPB VPWR Y
.ends

* Black-box entry subcircuit for sky130_fd_sc_hd__mux2_2 abstract view
.subckt sky130_fd_sc_hd__mux2_2 A0 A1 S VGND VNB VPB VPWR X
.ends

* Black-box entry subcircuit for sky130_fd_sc_hd__o2111ai_1 abstract view
.subckt sky130_fd_sc_hd__o2111ai_1 A1 A2 B1 C1 D1 VGND VNB VPB VPWR Y
.ends

.subckt div_pipe_rasterizer_m clk_i mstream_i mstream_o[0] mstream_o[10] mstream_o[11]
+ mstream_o[12] mstream_o[13] mstream_o[14] mstream_o[15] mstream_o[16] mstream_o[17]
+ mstream_o[18] mstream_o[19] mstream_o[1] mstream_o[20] mstream_o[21] mstream_o[22]
+ mstream_o[23] mstream_o[24] mstream_o[25] mstream_o[26] mstream_o[27] mstream_o[28]
+ mstream_o[29] mstream_o[2] mstream_o[30] mstream_o[31] mstream_o[32] mstream_o[33]
+ mstream_o[34] mstream_o[35] mstream_o[36] mstream_o[37] mstream_o[38] mstream_o[39]
+ mstream_o[3] mstream_o[40] mstream_o[41] mstream_o[42] mstream_o[43] mstream_o[4]
+ mstream_o[5] mstream_o[6] mstream_o[7] mstream_o[8] mstream_o[9] nrst_i sstream_i[0]
+ sstream_i[10] sstream_i[11] sstream_i[12] sstream_i[13] sstream_i[14] sstream_i[15]
+ sstream_i[16] sstream_i[17] sstream_i[18] sstream_i[19] sstream_i[1] sstream_i[20]
+ sstream_i[21] sstream_i[22] sstream_i[23] sstream_i[24] sstream_i[25] sstream_i[26]
+ sstream_i[27] sstream_i[28] sstream_i[29] sstream_i[2] sstream_i[30] sstream_i[31]
+ sstream_i[32] sstream_i[33] sstream_i[34] sstream_i[35] sstream_i[36] sstream_i[37]
+ sstream_i[38] sstream_i[39] sstream_i[3] sstream_i[40] sstream_i[41] sstream_i[42]
+ sstream_i[43] sstream_i[44] sstream_i[45] sstream_i[46] sstream_i[47] sstream_i[48]
+ sstream_i[49] sstream_i[4] sstream_i[50] sstream_i[51] sstream_i[52] sstream_i[53]
+ sstream_i[54] sstream_i[55] sstream_i[56] sstream_i[57] sstream_i[58] sstream_i[59]
+ sstream_i[5] sstream_i[60] sstream_i[61] sstream_i[62] sstream_i[63] sstream_i[64]
+ sstream_i[65] sstream_i[66] sstream_i[67] sstream_i[68] sstream_i[69] sstream_i[6]
+ sstream_i[70] sstream_i[71] sstream_i[72] sstream_i[73] sstream_i[74] sstream_i[75]
+ sstream_i[76] sstream_i[77] sstream_i[78] sstream_i[79] sstream_i[7] sstream_i[80]
+ sstream_i[81] sstream_i[82] sstream_i[83] sstream_i[84] sstream_i[85] sstream_i[8]
+ sstream_i[9] sstream_o vccd1 vssd1
XFILLER_0_118_51 vssd1 vssd1 vccd1 vccd1 sky130_fd_sc_hd__fill_2
XANTENNA__15814__B hold883/A vssd1 vssd1 vccd1 vccd1 sky130_fd_sc_hd__diode_2
X_18869_ _18818_/B _22375_/B _18827_/A vssd1 vssd1 vccd1 vccd1 _18869_/Y sky130_fd_sc_hd__o21ai_1
X_20900_ _20952_/B _20952_/C _20900_/C vssd1 vssd1 vccd1 vccd1 _20901_/C sky130_fd_sc_hd__nand3_1
X_21880_ _21880_/A _21947_/B _21880_/C vssd1 vssd1 vccd1 vccd1 _21880_/Y sky130_fd_sc_hd__nand3_1
X_20831_ _20831_/A _20831_/B vssd1 vssd1 vccd1 vccd1 _20832_/B sky130_fd_sc_hd__nand2_1
XFILLER_0_89_483 vssd1 vssd1 vccd1 vccd1 sky130_fd_sc_hd__decap_6
XANTENNA_fanout162_A fanout163/X vssd1 vssd1 vccd1 vccd1 sky130_fd_sc_hd__diode_2
XFILLER_0_76_133 vssd1 vssd1 vccd1 vccd1 sky130_fd_sc_hd__decap_4
XFILLER_0_77_656 vssd1 vssd1 vccd1 vccd1 sky130_fd_sc_hd__fill_1
XFILLER_0_134_72 vssd1 vssd1 vccd1 vccd1 sky130_fd_sc_hd__fill_1
X_23550_ _23458_/A _23888_/B _23457_/Y vssd1 vssd1 vccd1 vccd1 _23550_/Y sky130_fd_sc_hd__o21ai_1
X_20762_ _20764_/B vssd1 vssd1 vccd1 vccd1 _20763_/B sky130_fd_sc_hd__inv_2
XFILLER_0_43_70 vssd1 vssd1 vccd1 vccd1 sky130_fd_sc_hd__fill_2
XANTENNA__16645__B _16645_/B vssd1 vssd1 vccd1 vccd1 sky130_fd_sc_hd__diode_2
XFILLER_0_18_712 vssd1 vssd1 vccd1 vccd1 sky130_fd_sc_hd__fill_1
X_22501_ hold654/X vssd1 vssd1 vccd1 vccd1 _25291_/D sky130_fd_sc_hd__clkbuf_1
XFILLER_0_43_92 vssd1 vssd1 vccd1 vccd1 sky130_fd_sc_hd__fill_2
XFILLER_0_92_626 vssd1 vssd1 vccd1 vccd1 sky130_fd_sc_hd__fill_1
X_23481_ _23398_/B _23393_/Y _23394_/A vssd1 vssd1 vccd1 vccd1 _23481_/X sky130_fd_sc_hd__a21o_1
XFILLER_0_135_706 vssd1 vssd1 vccd1 vccd1 sky130_fd_sc_hd__fill_2
X_20693_ _20693_/A hold821/A _20693_/C vssd1 vssd1 vccd1 vccd1 _20750_/A sky130_fd_sc_hd__nand3_1
XFILLER_0_119_268 vssd1 vssd1 vccd1 vccd1 sky130_fd_sc_hd__decap_3
XANTENNA__24862__B _24862_/B vssd1 vssd1 vccd1 vccd1 sky130_fd_sc_hd__diode_2
XFILLER_0_91_136 vssd1 vssd1 vccd1 vccd1 sky130_fd_sc_hd__decap_4
XFILLER_0_119_279 vssd1 vssd1 vccd1 vccd1 sky130_fd_sc_hd__fill_1
X_25220_ _25225_/CLK _25220_/D fanout157/X vssd1 vssd1 vccd1 vccd1 _25220_/Q sky130_fd_sc_hd__dfrtp_4
XFILLER_0_17_233 vssd1 vssd1 vccd1 vccd1 sky130_fd_sc_hd__decap_3
X_22432_ _22448_/A _22432_/B vssd1 vssd1 vccd1 vccd1 _22440_/B sky130_fd_sc_hd__nand2_1
XANTENNA__13350__A _13480_/A vssd1 vssd1 vccd1 vccd1 sky130_fd_sc_hd__diode_2
XFILLER_0_18_767 vssd1 vssd1 vccd1 vccd1 sky130_fd_sc_hd__fill_1
XFILLER_0_134_227 vssd1 vssd1 vccd1 vccd1 sky130_fd_sc_hd__fill_2
XANTENNA__22663__A _22793_/A vssd1 vssd1 vccd1 vccd1 sky130_fd_sc_hd__diode_2
XFILLER_0_91_169 vssd1 vssd1 vccd1 vccd1 sky130_fd_sc_hd__fill_2
X_22363_ _22363_/A _22363_/B vssd1 vssd1 vccd1 vccd1 _22366_/A sky130_fd_sc_hd__nand2_1
X_25151_ _25196_/CLK _25151_/D fanout158/X vssd1 vssd1 vccd1 vccd1 hold288/A sky130_fd_sc_hd__dfrtp_1
XFILLER_0_60_523 vssd1 vssd1 vccd1 vccd1 sky130_fd_sc_hd__fill_2
XFILLER_0_32_225 vssd1 vssd1 vccd1 vccd1 sky130_fd_sc_hd__fill_1
X_21314_ _21314_/A hold785/A _21314_/C vssd1 vssd1 vccd1 vccd1 _21343_/A sky130_fd_sc_hd__nand3_1
XFILLER_0_115_474 vssd1 vssd1 vccd1 vccd1 sky130_fd_sc_hd__decap_8
X_24102_ _24102_/A hold644/A vssd1 vssd1 vccd1 vccd1 _24103_/B sky130_fd_sc_hd__nand2_1
XFILLER_0_60_556 vssd1 vssd1 vccd1 vccd1 sky130_fd_sc_hd__decap_3
X_25082_ _25119_/CLK _25082_/D fanout164/X vssd1 vssd1 vccd1 vccd1 hold566/A sky130_fd_sc_hd__dfrtp_1
XFILLER_0_102_102 vssd1 vssd1 vccd1 vccd1 sky130_fd_sc_hd__fill_1
X_22294_ hold174/X _22168_/A _22293_/Y vssd1 vssd1 vccd1 vccd1 _25254_/D sky130_fd_sc_hd__o21ai_1
XFILLER_0_60_589 vssd1 vssd1 vccd1 vccd1 sky130_fd_sc_hd__fill_2
X_24033_ _24033_/A hold707/A vssd1 vssd1 vccd1 vccd1 _24034_/B sky130_fd_sc_hd__nand2_1
Xhold340 hold340/A vssd1 vssd1 vccd1 vccd1 hold340/X sky130_fd_sc_hd__dlygate4sd3_1
X_21245_ _21245_/A _21245_/B vssd1 vssd1 vccd1 vccd1 _21245_/Y sky130_fd_sc_hd__nor2_1
Xhold351 hold351/A vssd1 vssd1 vccd1 vccd1 hold351/X sky130_fd_sc_hd__dlygate4sd3_1
XFILLER_0_130_477 vssd1 vssd1 vccd1 vccd1 sky130_fd_sc_hd__decap_3
Xhold362 hold362/A vssd1 vssd1 vccd1 vccd1 hold362/X sky130_fd_sc_hd__dlygate4sd3_1
Xhold373 hold373/A vssd1 vssd1 vccd1 vccd1 hold373/X sky130_fd_sc_hd__dlygate4sd3_1
Xhold384 hold384/A vssd1 vssd1 vccd1 vccd1 hold384/X sky130_fd_sc_hd__dlygate4sd3_1
X_21176_ _21178_/B vssd1 vssd1 vccd1 vccd1 _21177_/B sky130_fd_sc_hd__inv_2
Xhold395 hold395/A vssd1 vssd1 vccd1 vccd1 hold395/X sky130_fd_sc_hd__dlygate4sd3_1
XANTENNA__17492__A _17502_/A vssd1 vssd1 vccd1 vccd1 sky130_fd_sc_hd__diode_2
X_20127_ _20139_/B vssd1 vssd1 vccd1 vccd1 _20128_/B sky130_fd_sc_hd__inv_2
XANTENNA__21908__A2 _21717_/A vssd1 vssd1 vccd1 vccd1 sky130_fd_sc_hd__diode_2
X_24935_ _14660_/B hold750/X _24961_/S vssd1 vssd1 vccd1 vccd1 _24936_/A sky130_fd_sc_hd__mux2_1
X_20058_ _20058_/A _20058_/B vssd1 vssd1 vccd1 vccd1 _20240_/A sky130_fd_sc_hd__nand2_1
XFILLER_0_99_225 vssd1 vssd1 vccd1 vccd1 sky130_fd_sc_hd__fill_2
X_24866_ _14462_/B _24862_/B input72/X vssd1 vssd1 vccd1 vccd1 _24866_/X sky130_fd_sc_hd__a21o_1
X_12880_ _12880_/A hold747/A vssd1 vssd1 vccd1 vccd1 _12881_/B sky130_fd_sc_hd__nand2_1
XANTENNA__24858__A1 _24869_/A vssd1 vssd1 vccd1 vccd1 sky130_fd_sc_hd__diode_2
XANTENNA__13244__B hold786/A vssd1 vssd1 vccd1 vccd1 sky130_fd_sc_hd__diode_2
XANTENNA__24756__C hold336/X vssd1 vssd1 vccd1 vccd1 sky130_fd_sc_hd__diode_2
X_23817_ _23810_/Y _23811_/X _23812_/Y _23815_/X _23816_/X vssd1 vssd1 vccd1 vccd1
+ _23817_/X sky130_fd_sc_hd__o221a_1
XTAP_1800 vssd1 vccd1 sky130_fd_sc_hd__tapvpwrvgnd_1
X_24797_ _24809_/A _24809_/B hold469/X vssd1 vssd1 vccd1 vccd1 _24797_/X sky130_fd_sc_hd__and3_1
XTAP_1811 vssd1 vccd1 sky130_fd_sc_hd__tapvpwrvgnd_1
XFILLER_0_67_122 vssd1 vssd1 vccd1 vccd1 sky130_fd_sc_hd__fill_2
XTAP_1822 vssd1 vccd1 sky130_fd_sc_hd__tapvpwrvgnd_1
X_14550_ _14550_/A _14550_/B vssd1 vssd1 vccd1 vccd1 _14594_/A sky130_fd_sc_hd__nand2_2
XFILLER_0_68_667 vssd1 vssd1 vccd1 vccd1 sky130_fd_sc_hd__fill_1
XTAP_1833 vssd1 vccd1 sky130_fd_sc_hd__tapvpwrvgnd_1
XFILLER_0_28_509 vssd1 vssd1 vccd1 vccd1 sky130_fd_sc_hd__fill_2
X_23748_ _24108_/B _25196_/Q vssd1 vssd1 vccd1 vccd1 _23749_/B sky130_fd_sc_hd__nand2_1
XANTENNA_hold806_A hold870/A vssd1 vssd1 vccd1 vccd1 sky130_fd_sc_hd__diode_2
XTAP_1844 vssd1 vccd1 sky130_fd_sc_hd__tapvpwrvgnd_1
XTAP_1855 vssd1 vccd1 sky130_fd_sc_hd__tapvpwrvgnd_1
XFILLER_0_138_533 vssd1 vssd1 vccd1 vccd1 sky130_fd_sc_hd__fill_1
XTAP_1866 vssd1 vccd1 sky130_fd_sc_hd__tapvpwrvgnd_1
X_13501_ _13437_/B _13746_/B _13447_/B vssd1 vssd1 vccd1 vccd1 _13502_/A sky130_fd_sc_hd__o21ai_1
XTAP_1877 vssd1 vccd1 sky130_fd_sc_hd__tapvpwrvgnd_1
X_14481_ _24877_/A input83/X _14481_/C vssd1 vssd1 vccd1 vccd1 _14481_/X sky130_fd_sc_hd__or3_1
XTAP_1888 vssd1 vccd1 sky130_fd_sc_hd__tapvpwrvgnd_1
XFILLER_0_126_717 vssd1 vssd1 vccd1 vccd1 sky130_fd_sc_hd__fill_2
X_23679_ _23679_/A _23679_/B vssd1 vssd1 vccd1 vccd1 _23985_/A sky130_fd_sc_hd__nand2_1
XFILLER_0_82_125 vssd1 vssd1 vccd1 vccd1 sky130_fd_sc_hd__fill_1
XTAP_1899 vssd1 vccd1 sky130_fd_sc_hd__tapvpwrvgnd_1
X_16220_ _16220_/A _16831_/C vssd1 vssd1 vccd1 vccd1 _16770_/B sky130_fd_sc_hd__nand2_1
X_13432_ _13480_/B _13438_/A vssd1 vssd1 vccd1 vccd1 _13433_/B sky130_fd_sc_hd__nand2_1
X_25418_ _25610_/CLK _25418_/D fanout152/X vssd1 vssd1 vccd1 vccd1 hold825/A sky130_fd_sc_hd__dfrtp_1
XFILLER_0_125_216 vssd1 vssd1 vccd1 vccd1 sky130_fd_sc_hd__decap_8
XFILLER_0_36_553 vssd1 vssd1 vccd1 vccd1 sky130_fd_sc_hd__decap_4
XFILLER_0_36_564 vssd1 vssd1 vccd1 vccd1 sky130_fd_sc_hd__decap_8
XFILLER_0_70_309 vssd1 vssd1 vccd1 vccd1 sky130_fd_sc_hd__fill_1
XFILLER_0_51_501 vssd1 vssd1 vccd1 vccd1 sky130_fd_sc_hd__decap_3
X_16151_ _16685_/B hold850/A vssd1 vssd1 vccd1 vccd1 _16404_/B sky130_fd_sc_hd__nand2_1
XFILLER_0_51_523 vssd1 vssd1 vccd1 vccd1 sky130_fd_sc_hd__fill_1
X_25349_ _25382_/CLK _25349_/D fanout141/X vssd1 vssd1 vccd1 vccd1 hold354/A sky130_fd_sc_hd__dfrtp_1
X_13363_ _13609_/B _13580_/A vssd1 vssd1 vccd1 vccd1 _13419_/A sky130_fd_sc_hd__nor2_1
Xrebuffer7 _19208_/A vssd1 vssd1 vccd1 vccd1 _19126_/B sky130_fd_sc_hd__clkbuf_1
XANTENNA__22292__B _22411_/B vssd1 vssd1 vccd1 vccd1 sky130_fd_sc_hd__diode_2
X_15102_ _15102_/A hold847/A vssd1 vssd1 vccd1 vccd1 _15103_/B sky130_fd_sc_hd__nand2_1
XFILLER_0_133_260 vssd1 vssd1 vccd1 vccd1 sky130_fd_sc_hd__fill_2
XFILLER_0_51_556 vssd1 vssd1 vccd1 vccd1 sky130_fd_sc_hd__fill_2
XFILLER_0_134_794 vssd1 vssd1 vccd1 vccd1 sky130_fd_sc_hd__fill_1
XFILLER_0_121_411 vssd1 vssd1 vccd1 vccd1 sky130_fd_sc_hd__fill_2
X_16082_ _16082_/A _16886_/C vssd1 vssd1 vccd1 vccd1 _16855_/A sky130_fd_sc_hd__nand2_1
X_13294_ _13659_/A _13684_/A vssd1 vssd1 vccd1 vccd1 _13314_/A sky130_fd_sc_hd__nor2_1
X_15033_ _15337_/B hold804/A vssd1 vssd1 vccd1 vccd1 _15034_/B sky130_fd_sc_hd__nand2_1
X_19910_ _19910_/A _21323_/C _19910_/C vssd1 vssd1 vccd1 vccd1 _19911_/B sky130_fd_sc_hd__nand3_1
XFILLER_0_121_466 vssd1 vssd1 vccd1 vccd1 sky130_fd_sc_hd__fill_2
X_19841_ _19841_/A _19841_/B _19841_/C vssd1 vssd1 vccd1 vccd1 _19842_/B sky130_fd_sc_hd__nand3_1
XANTENNA__22512__S _22516_/S vssd1 vssd1 vccd1 vccd1 sky130_fd_sc_hd__diode_2
XFILLER_0_48_59 vssd1 vssd1 vccd1 vccd1 sky130_ef_sc_hd__decap_12
X_16984_ _16984_/A _16984_/B _16984_/C vssd1 vssd1 vccd1 vccd1 _17471_/B sky130_fd_sc_hd__nand3_2
X_19772_ _19805_/A _19805_/C vssd1 vssd1 vccd1 vccd1 _19937_/B sky130_fd_sc_hd__nand2_1
X_15935_ _15935_/A _15935_/B vssd1 vssd1 vccd1 vccd1 _16051_/B sky130_fd_sc_hd__nand2_1
X_18723_ _18723_/A _18723_/B _18723_/C vssd1 vssd1 vccd1 vccd1 _18724_/B sky130_fd_sc_hd__nand3_1
XANTENNA__13435__A hold786/A vssd1 vssd1 vccd1 vccd1 sky130_fd_sc_hd__diode_2
XANTENNA__15126__S _15217_/A vssd1 vssd1 vccd1 vccd1 sky130_fd_sc_hd__diode_2
X_18654_ _18654_/A _18654_/B vssd1 vssd1 vccd1 vccd1 _18655_/B sky130_fd_sc_hd__xor2_1
X_15866_ _15873_/A _16160_/B _16097_/B _16095_/B vssd1 vssd1 vccd1 vccd1 _15979_/A
+ sky130_fd_sc_hd__and4_1
XFILLER_0_64_69 vssd1 vssd1 vccd1 vccd1 sky130_fd_sc_hd__fill_1