* NGSPICE file created from metadata_cache_m.ext - technology: sky130A

* Black-box entry subcircuit for sky130_fd_sc_hd__decap_6 abstract view
.subckt sky130_fd_sc_hd__decap_6 VGND VNB VPB VPWR
.ends

* Black-box entry subcircuit for sky130_fd_sc_hd__decap_8 abstract view
.subckt sky130_fd_sc_hd__decap_8 VGND VNB VPB VPWR
.ends

* Black-box entry subcircuit for sky130_fd_sc_hd__or3_1 abstract view
.subckt sky130_fd_sc_hd__or3_1 A B C VGND VNB VPB VPWR X
.ends

* Black-box entry subcircuit for sky130_fd_sc_hd__mux2_1 abstract view
.subckt sky130_fd_sc_hd__mux2_1 A0 A1 S VGND VNB VPB VPWR X
.ends

* Black-box entry subcircuit for sky130_fd_sc_hd__clkbuf_4 abstract view
.subckt sky130_fd_sc_hd__clkbuf_4 A VGND VNB VPB VPWR X
.ends

* Black-box entry subcircuit for sky130_ef_sc_hd__decap_12 abstract view
.subckt sky130_ef_sc_hd__decap_12 VGND VNB VPB VPWR
.ends

* Black-box entry subcircuit for sky130_fd_sc_hd__and3_1 abstract view
.subckt sky130_fd_sc_hd__and3_1 A B C VGND VNB VPB VPWR X
.ends

* Black-box entry subcircuit for sky130_fd_sc_hd__fill_1 abstract view
.subckt sky130_fd_sc_hd__fill_1 VGND VNB VPB VPWR
.ends

* Black-box entry subcircuit for sky130_fd_sc_hd__decap_4 abstract view
.subckt sky130_fd_sc_hd__decap_4 VGND VNB VPB VPWR
.ends

* Black-box entry subcircuit for sky130_fd_sc_hd__clkbuf_1 abstract view
.subckt sky130_fd_sc_hd__clkbuf_1 A VGND VNB VPB VPWR X
.ends

* Black-box entry subcircuit for sky130_fd_sc_hd__nor4_1 abstract view
.subckt sky130_fd_sc_hd__nor4_1 A B C D VGND VNB VPB VPWR Y
.ends

* Black-box entry subcircuit for sky130_fd_sc_hd__buf_6 abstract view
.subckt sky130_fd_sc_hd__buf_6 A VGND VNB VPB VPWR X
.ends

* Black-box entry subcircuit for sky130_fd_sc_hd__buf_4 abstract view
.subckt sky130_fd_sc_hd__buf_4 A VGND VNB VPB VPWR X
.ends

* Black-box entry subcircuit for sky130_fd_sc_hd__o2bb2a_1 abstract view
.subckt sky130_fd_sc_hd__o2bb2a_1 A1_N A2_N B1 B2 VGND VNB VPB VPWR X
.ends

* Black-box entry subcircuit for sky130_fd_sc_hd__decap_3 abstract view
.subckt sky130_fd_sc_hd__decap_3 VGND VNB VPB VPWR
.ends

* Black-box entry subcircuit for sky130_fd_sc_hd__buf_2 abstract view
.subckt sky130_fd_sc_hd__buf_2 A VGND VNB VPB VPWR X
.ends

* Black-box entry subcircuit for sky130_fd_sc_hd__or4_1 abstract view
.subckt sky130_fd_sc_hd__or4_1 A B C D VGND VNB VPB VPWR X
.ends

* Black-box entry subcircuit for sky130_fd_sc_hd__clkbuf_8 abstract view
.subckt sky130_fd_sc_hd__clkbuf_8 A VGND VNB VPB VPWR X
.ends

* Black-box entry subcircuit for sky130_fd_sc_hd__tapvpwrvgnd_1 abstract view
.subckt sky130_fd_sc_hd__tapvpwrvgnd_1 VGND VPWR
.ends

* Black-box entry subcircuit for sky130_fd_sc_hd__dfrtp_1 abstract view
.subckt sky130_fd_sc_hd__dfrtp_1 CLK D RESET_B VGND VNB VPB VPWR Q
.ends

* Black-box entry subcircuit for sky130_fd_sc_hd__diode_2 abstract view
.subckt sky130_fd_sc_hd__diode_2 DIODE VGND VNB VPB VPWR
.ends

* Black-box entry subcircuit for sky130_fd_sc_hd__fill_2 abstract view
.subckt sky130_fd_sc_hd__fill_2 VGND VNB VPB VPWR
.ends

* Black-box entry subcircuit for sky130_fd_sc_hd__and2_1 abstract view
.subckt sky130_fd_sc_hd__and2_1 A B VGND VNB VPB VPWR X
.ends

* Black-box entry subcircuit for sky130_fd_sc_hd__a22o_1 abstract view
.subckt sky130_fd_sc_hd__a22o_1 A1 A2 B1 B2 VGND VNB VPB VPWR X
.ends

* Black-box entry subcircuit for sky130_fd_sc_hd__nor2_1 abstract view
.subckt sky130_fd_sc_hd__nor2_1 A B VGND VNB VPB VPWR Y
.ends

* Black-box entry subcircuit for sky130_fd_sc_hd__a221o_1 abstract view
.subckt sky130_fd_sc_hd__a221o_1 A1 A2 B1 B2 C1 VGND VNB VPB VPWR X
.ends

* Black-box entry subcircuit for sky130_fd_sc_hd__xor2_1 abstract view
.subckt sky130_fd_sc_hd__xor2_1 A B VGND VNB VPB VPWR X
.ends

* Black-box entry subcircuit for sky130_fd_sc_hd__clkbuf_2 abstract view
.subckt sky130_fd_sc_hd__clkbuf_2 A VGND VNB VPB VPWR X
.ends

* Black-box entry subcircuit for sky130_fd_sc_hd__a2111o_1 abstract view
.subckt sky130_fd_sc_hd__a2111o_1 A1 A2 B1 C1 D1 VGND VNB VPB VPWR X
.ends

* Black-box entry subcircuit for sky130_fd_sc_hd__buf_8 abstract view
.subckt sky130_fd_sc_hd__buf_8 A VGND VNB VPB VPWR X
.ends

* Black-box entry subcircuit for sky130_fd_sc_hd__a21o_1 abstract view
.subckt sky130_fd_sc_hd__a21o_1 A1 A2 B1 VGND VNB VPB VPWR X
.ends

* Black-box entry subcircuit for sky130_fd_sc_hd__or2_1 abstract view
.subckt sky130_fd_sc_hd__or2_1 A B VGND VNB VPB VPWR X
.ends

* Black-box entry subcircuit for sky130_fd_sc_hd__conb_1 abstract view
.subckt sky130_fd_sc_hd__conb_1 VGND VNB VPB VPWR HI LO
.ends

* Black-box entry subcircuit for sky130_fd_sc_hd__or2b_1 abstract view
.subckt sky130_fd_sc_hd__or2b_1 A B_N VGND VNB VPB VPWR X
.ends

* Black-box entry subcircuit for sky130_fd_sc_hd__nand2_1 abstract view
.subckt sky130_fd_sc_hd__nand2_1 A B VGND VNB VPB VPWR Y
.ends

* Black-box entry subcircuit for sky130_fd_sc_hd__buf_1 abstract view
.subckt sky130_fd_sc_hd__buf_1 A VGND VNB VPB VPWR X
.ends

* Black-box entry subcircuit for sky130_fd_sc_hd__a32o_1 abstract view
.subckt sky130_fd_sc_hd__a32o_1 A1 A2 A3 B1 B2 VGND VNB VPB VPWR X
.ends

* Black-box entry subcircuit for sky130_fd_sc_hd__or2_2 abstract view
.subckt sky130_fd_sc_hd__or2_2 A B VGND VNB VPB VPWR X
.ends

* Black-box entry subcircuit for sky130_fd_sc_hd__o22ai_1 abstract view
.subckt sky130_fd_sc_hd__o22ai_1 A1 A2 B1 B2 VGND VNB VPB VPWR Y
.ends

* Black-box entry subcircuit for sky130_fd_sc_hd__dfxtp_4 abstract view
.subckt sky130_fd_sc_hd__dfxtp_4 CLK D VGND VNB VPB VPWR Q
.ends

* Black-box entry subcircuit for sky130_fd_sc_hd__dfrtp_4 abstract view
.subckt sky130_fd_sc_hd__dfrtp_4 CLK D RESET_B VGND VNB VPB VPWR Q
.ends

* Black-box entry subcircuit for sky130_fd_sc_hd__a2bb2o_1 abstract view
.subckt sky130_fd_sc_hd__a2bb2o_1 A1_N A2_N B1 B2 VGND VNB VPB VPWR X
.ends

* Black-box entry subcircuit for sky130_fd_sc_hd__or3_2 abstract view
.subckt sky130_fd_sc_hd__or3_2 A B C VGND VNB VPB VPWR X
.ends

* Black-box entry subcircuit for sky130_fd_sc_hd__or3b_1 abstract view
.subckt sky130_fd_sc_hd__or3b_1 A B C_N VGND VNB VPB VPWR X
.ends

* Black-box entry subcircuit for sky130_fd_sc_hd__o22a_1 abstract view
.subckt sky130_fd_sc_hd__o22a_1 A1 A2 B1 B2 VGND VNB VPB VPWR X
.ends

* Black-box entry subcircuit for sky130_fd_sc_hd__o22ai_4 abstract view
.subckt sky130_fd_sc_hd__o22ai_4 A1 A2 B1 B2 VGND VNB VPB VPWR Y
.ends

* Black-box entry subcircuit for sky130_fd_sc_hd__and4b_1 abstract view
.subckt sky130_fd_sc_hd__and4b_1 A_N B C D VGND VNB VPB VPWR X
.ends

* Black-box entry subcircuit for sky130_fd_sc_hd__dlymetal6s2s_1 abstract view
.subckt sky130_fd_sc_hd__dlymetal6s2s_1 A VGND VNB VPB VPWR X
.ends

* Black-box entry subcircuit for sky130_fd_sc_hd__nor4b_1 abstract view
.subckt sky130_fd_sc_hd__nor4b_1 A B C D_N VGND VNB VPB VPWR Y
.ends

* Black-box entry subcircuit for sky130_fd_sc_hd__or4_2 abstract view
.subckt sky130_fd_sc_hd__or4_2 A B C D VGND VNB VPB VPWR X
.ends

* Black-box entry subcircuit for sky130_fd_sc_hd__a2bb2o_4 abstract view
.subckt sky130_fd_sc_hd__a2bb2o_4 A1_N A2_N B1 B2 VGND VNB VPB VPWR X
.ends

* Black-box entry subcircuit for sky130_fd_sc_hd__dfrtp_2 abstract view
.subckt sky130_fd_sc_hd__dfrtp_2 CLK D RESET_B VGND VNB VPB VPWR Q
.ends

* Black-box entry subcircuit for sky130_fd_sc_hd__o21a_1 abstract view
.subckt sky130_fd_sc_hd__o21a_1 A1 A2 B1 VGND VNB VPB VPWR X
.ends

* Black-box entry subcircuit for sky130_fd_sc_hd__and2b_2 abstract view
.subckt sky130_fd_sc_hd__and2b_2 A_N B VGND VNB VPB VPWR X
.ends

* Black-box entry subcircuit for sky130_fd_sc_hd__and4_1 abstract view
.subckt sky130_fd_sc_hd__and4_1 A B C D VGND VNB VPB VPWR X
.ends

* Black-box entry subcircuit for sky130_fd_sc_hd__and4_4 abstract view
.subckt sky130_fd_sc_hd__and4_4 A B C D VGND VNB VPB VPWR X
.ends

* Black-box entry subcircuit for sky130_fd_sc_hd__and2_4 abstract view
.subckt sky130_fd_sc_hd__and2_4 A B VGND VNB VPB VPWR X
.ends

* Black-box entry subcircuit for sky130_fd_sc_hd__o21ba_1 abstract view
.subckt sky130_fd_sc_hd__o21ba_1 A1 A2 B1_N VGND VNB VPB VPWR X
.ends

* Black-box entry subcircuit for sky130_fd_sc_hd__dfstp_4 abstract view
.subckt sky130_fd_sc_hd__dfstp_4 CLK D SET_B VGND VNB VPB VPWR Q
.ends

* Black-box entry subcircuit for sky130_fd_sc_hd__o21ai_1 abstract view
.subckt sky130_fd_sc_hd__o21ai_1 A1 A2 B1 VGND VNB VPB VPWR Y
.ends

* Black-box entry subcircuit for sky130_fd_sc_hd__nor2_4 abstract view
.subckt sky130_fd_sc_hd__nor2_4 A B VGND VNB VPB VPWR Y
.ends

* Black-box entry subcircuit for sky130_fd_sc_hd__nand3b_1 abstract view
.subckt sky130_fd_sc_hd__nand3b_1 A_N B C VGND VNB VPB VPWR Y
.ends

* Black-box entry subcircuit for sky130_fd_sc_hd__and2b_1 abstract view
.subckt sky130_fd_sc_hd__and2b_1 A_N B VGND VNB VPB VPWR X
.ends

* Black-box entry subcircuit for sky130_fd_sc_hd__and2_2 abstract view
.subckt sky130_fd_sc_hd__and2_2 A B VGND VNB VPB VPWR X
.ends

* Black-box entry subcircuit for sky130_fd_sc_hd__nor4b_2 abstract view
.subckt sky130_fd_sc_hd__nor4b_2 A B C D_N VGND VNB VPB VPWR Y
.ends

* Black-box entry subcircuit for sky130_fd_sc_hd__a2111o_2 abstract view
.subckt sky130_fd_sc_hd__a2111o_2 A1 A2 B1 C1 D1 VGND VNB VPB VPWR X
.ends

* Black-box entry subcircuit for sky130_fd_sc_hd__and4bb_4 abstract view
.subckt sky130_fd_sc_hd__and4bb_4 A_N B_N C D VGND VNB VPB VPWR X
.ends

* Black-box entry subcircuit for sky130_fd_sc_hd__o311ai_1 abstract view
.subckt sky130_fd_sc_hd__o311ai_1 A1 A2 A3 B1 C1 VGND VNB VPB VPWR Y
.ends

* Black-box entry subcircuit for sky130_fd_sc_hd__o211a_1 abstract view
.subckt sky130_fd_sc_hd__o211a_1 A1 A2 B1 C1 VGND VNB VPB VPWR X
.ends

* Black-box entry subcircuit for sky130_fd_sc_hd__nor4_2 abstract view
.subckt sky130_fd_sc_hd__nor4_2 A B C D VGND VNB VPB VPWR Y
.ends

* Black-box entry subcircuit for sky130_fd_sc_hd__nand2_2 abstract view
.subckt sky130_fd_sc_hd__nand2_2 A B VGND VNB VPB VPWR Y
.ends

* Black-box entry subcircuit for sky130_fd_sc_hd__buf_12 abstract view
.subckt sky130_fd_sc_hd__buf_12 A VGND VNB VPB VPWR X
.ends

* Black-box entry subcircuit for sky130_fd_sc_hd__dfxtp_1 abstract view
.subckt sky130_fd_sc_hd__dfxtp_1 CLK D VGND VNB VPB VPWR Q
.ends

* Black-box entry subcircuit for sky130_fd_sc_hd__o31a_4 abstract view
.subckt sky130_fd_sc_hd__o31a_4 A1 A2 A3 B1 VGND VNB VPB VPWR X
.ends

* Black-box entry subcircuit for sky130_fd_sc_hd__xnor2_4 abstract view
.subckt sky130_fd_sc_hd__xnor2_4 A B VGND VNB VPB VPWR Y
.ends

* Black-box entry subcircuit for sky130_fd_sc_hd__or3_4 abstract view
.subckt sky130_fd_sc_hd__or3_4 A B C VGND VNB VPB VPWR X
.ends

* Black-box entry subcircuit for sky130_fd_sc_hd__or4b_1 abstract view
.subckt sky130_fd_sc_hd__or4b_1 A B C D_N VGND VNB VPB VPWR X
.ends

* Black-box entry subcircuit for sky130_fd_sc_hd__o22a_2 abstract view
.subckt sky130_fd_sc_hd__o22a_2 A1 A2 B1 B2 VGND VNB VPB VPWR X
.ends

* Black-box entry subcircuit for sky130_fd_sc_hd__a21oi_1 abstract view
.subckt sky130_fd_sc_hd__a21oi_1 A1 A2 B1 VGND VNB VPB VPWR Y
.ends

* Black-box entry subcircuit for sky130_fd_sc_hd__a31o_1 abstract view
.subckt sky130_fd_sc_hd__a31o_1 A1 A2 A3 B1 VGND VNB VPB VPWR X
.ends

* Black-box entry subcircuit for sky130_fd_sc_hd__inv_2 abstract view
.subckt sky130_fd_sc_hd__inv_2 A VGND VNB VPB VPWR Y
.ends

* Black-box entry subcircuit for sky130_fd_sc_hd__nor3_4 abstract view
.subckt sky130_fd_sc_hd__nor3_4 A B C VGND VNB VPB VPWR Y
.ends

* Black-box entry subcircuit for sky130_fd_sc_hd__dfxtp_2 abstract view
.subckt sky130_fd_sc_hd__dfxtp_2 CLK D VGND VNB VPB VPWR Q
.ends

* Black-box entry subcircuit for sky130_fd_sc_hd__nand2_4 abstract view
.subckt sky130_fd_sc_hd__nand2_4 A B VGND VNB VPB VPWR Y
.ends

* Black-box entry subcircuit for sky130_fd_sc_hd__and4b_2 abstract view
.subckt sky130_fd_sc_hd__and4b_2 A_N B C D VGND VNB VPB VPWR X
.ends

* Black-box entry subcircuit for sky130_fd_sc_hd__or4_4 abstract view
.subckt sky130_fd_sc_hd__or4_4 A B C D VGND VNB VPB VPWR X
.ends

* Black-box entry subcircuit for sky130_fd_sc_hd__and3_2 abstract view
.subckt sky130_fd_sc_hd__and3_2 A B C VGND VNB VPB VPWR X
.ends

* Black-box entry subcircuit for sky130_fd_sc_hd__and4b_4 abstract view
.subckt sky130_fd_sc_hd__and4b_4 A_N B C D VGND VNB VPB VPWR X
.ends

* Black-box entry subcircuit for sky130_fd_sc_hd__mux2_2 abstract view
.subckt sky130_fd_sc_hd__mux2_2 A0 A1 S VGND VNB VPB VPWR X
.ends

* Black-box entry subcircuit for sky130_fd_sc_hd__nor2_2 abstract view
.subckt sky130_fd_sc_hd__nor2_2 A B VGND VNB VPB VPWR Y
.ends

* Black-box entry subcircuit for sky130_fd_sc_hd__and4_2 abstract view
.subckt sky130_fd_sc_hd__and4_2 A B C D VGND VNB VPB VPWR X
.ends

* Black-box entry subcircuit for sky130_fd_sc_hd__a221o_2 abstract view
.subckt sky130_fd_sc_hd__a221o_2 A1 A2 B1 B2 C1 VGND VNB VPB VPWR X
.ends

* Black-box entry subcircuit for sky130_fd_sc_hd__o21ai_2 abstract view
.subckt sky130_fd_sc_hd__o21ai_2 A1 A2 B1 VGND VNB VPB VPWR Y
.ends

* Black-box entry subcircuit for sky130_fd_sc_hd__a2bb2o_2 abstract view
.subckt sky130_fd_sc_hd__a2bb2o_2 A1_N A2_N B1 B2 VGND VNB VPB VPWR X
.ends

* Black-box entry subcircuit for sky130_fd_sc_hd__or2b_2 abstract view
.subckt sky130_fd_sc_hd__or2b_2 A B_N VGND VNB VPB VPWR X
.ends

* Black-box entry subcircuit for sky130_fd_sc_hd__nor3b_1 abstract view
.subckt sky130_fd_sc_hd__nor3b_1 A B C_N VGND VNB VPB VPWR Y
.ends

* Black-box entry subcircuit for sky130_fd_sc_hd__xnor2_1 abstract view
.subckt sky130_fd_sc_hd__xnor2_1 A B VGND VNB VPB VPWR Y
.ends

* Black-box entry subcircuit for sky130_fd_sc_hd__a2111oi_1 abstract view
.subckt sky130_fd_sc_hd__a2111oi_1 A1 A2 B1 C1 D1 VGND VNB VPB VPWR Y
.ends

* Black-box entry subcircuit for sky130_fd_sc_hd__nand2b_1 abstract view
.subckt sky130_fd_sc_hd__nand2b_1 A_N B VGND VNB VPB VPWR Y
.ends

* Black-box entry subcircuit for sky130_fd_sc_hd__o31ai_1 abstract view
.subckt sky130_fd_sc_hd__o31ai_1 A1 A2 A3 B1 VGND VNB VPB VPWR Y
.ends

* Black-box entry subcircuit for sky130_fd_sc_hd__a211o_1 abstract view
.subckt sky130_fd_sc_hd__a211o_1 A1 A2 B1 C1 VGND VNB VPB VPWR X
.ends

* Black-box entry subcircuit for sky130_fd_sc_hd__a31oi_1 abstract view
.subckt sky130_fd_sc_hd__a31oi_1 A1 A2 A3 B1 VGND VNB VPB VPWR Y
.ends

* Black-box entry subcircuit for sky130_fd_sc_hd__or3b_2 abstract view
.subckt sky130_fd_sc_hd__or3b_2 A B C_N VGND VNB VPB VPWR X
.ends

* Black-box entry subcircuit for sky130_fd_sc_hd__nand4_4 abstract view
.subckt sky130_fd_sc_hd__nand4_4 A B C D VGND VNB VPB VPWR Y
.ends

* Black-box entry subcircuit for sky130_fd_sc_hd__o31a_2 abstract view
.subckt sky130_fd_sc_hd__o31a_2 A1 A2 A3 B1 VGND VNB VPB VPWR X
.ends

* Black-box entry subcircuit for sky130_fd_sc_hd__a21o_2 abstract view
.subckt sky130_fd_sc_hd__a21o_2 A1 A2 B1 VGND VNB VPB VPWR X
.ends

* Black-box entry subcircuit for sky130_fd_sc_hd__o21ai_4 abstract view
.subckt sky130_fd_sc_hd__o21ai_4 A1 A2 B1 VGND VNB VPB VPWR Y
.ends

* Black-box entry subcircuit for sky130_fd_sc_hd__a21oi_2 abstract view
.subckt sky130_fd_sc_hd__a21oi_2 A1 A2 B1 VGND VNB VPB VPWR Y
.ends

* Black-box entry subcircuit for sky130_fd_sc_hd__a21bo_1 abstract view
.subckt sky130_fd_sc_hd__a21bo_1 A1 A2 B1_N VGND VNB VPB VPWR X
.ends

* Black-box entry subcircuit for sky130_fd_sc_hd__and3b_1 abstract view
.subckt sky130_fd_sc_hd__and3b_1 A_N B C VGND VNB VPB VPWR X
.ends

* Black-box entry subcircuit for CF_SRAM_1024x32 abstract view
.subckt CF_SRAM_1024x32 DO[16] BEN[16] DO[17] BEN[17] DO[18] BEN[18] DO[19] BEN[19]
+ DO[20] BEN[20] DO[21] BEN[21] DO[22] BEN[22] DO[23] BEN[23] DO[24] BEN[24] DO[25]
+ BEN[25] DO[26] BEN[26] DO[27] BEN[27] DO[28] BEN[28] DO[29] BEN[29] DO[30] BEN[30]
+ DO[31] BEN[31] AD[0] AD[1] AD[2] WLBI WLOFF CLKin EN R_WB SM TM ScanInDR ScanOutCC
+ ScanInDL DO[9] BEN[9] DO[10] BEN[10] DO[11] BEN[11] DO[12] BEN[12] DO[13] BEN[13]
+ DO[14] BEN[14] DO[15] BEN[15] BEN[8] AD[3] AD[4] AD[5] AD[6] AD[7] AD[8] AD[9] ScanInCC
+ DO[0] BEN[0] DO[1] BEN[1] DO[2] BEN[2] DO[3] BEN[3] DO[4] BEN[4] DO[5] BEN[5] DO[6]
+ BEN[6] DO[7] BEN[7] DO[8] DI[3] DI[12] DI[0] DI[4] DI[14] DI[11] DI[5] DI[1] DI[9]
+ DI[6] DI[15] DI[2] DI[7] DI[13] DI[10] DI[8] DI[23] DI[27] DI[19] DI[21] DI[28]
+ DI[24] DI[18] DI[29] DI[16] DI[25] DI[30] DI[22] DI[20] DI[26] DI[17] DI[31] vnb
+ vpwrm vpwra vpwrp vgnd vpb vpwrpc vpwrac
.ends

* Black-box entry subcircuit for sky130_fd_sc_hd__o22a_4 abstract view
.subckt sky130_fd_sc_hd__o22a_4 A1 A2 B1 B2 VGND VNB VPB VPWR X
.ends

* Black-box entry subcircuit for sky130_fd_sc_hd__or4b_2 abstract view
.subckt sky130_fd_sc_hd__or4b_2 A B C D_N VGND VNB VPB VPWR X
.ends

* Black-box entry subcircuit for sky130_fd_sc_hd__or4b_4 abstract view
.subckt sky130_fd_sc_hd__or4b_4 A B C D_N VGND VNB VPB VPWR X
.ends

* Black-box entry subcircuit for sky130_fd_sc_hd__inv_4 abstract view
.subckt sky130_fd_sc_hd__inv_4 A VGND VNB VPB VPWR Y
.ends

* Black-box entry subcircuit for sky130_fd_sc_hd__nand2_8 abstract view
.subckt sky130_fd_sc_hd__nand2_8 A B VGND VNB VPB VPWR Y
.ends

.subckt metadata_cache_m clk_i m_mem_i[0] m_mem_i[10] m_mem_i[11] m_mem_i[12] m_mem_i[13]
+ m_mem_i[14] m_mem_i[15] m_mem_i[16] m_mem_i[17] m_mem_i[18] m_mem_i[19] m_mem_i[1]
+ m_mem_i[20] m_mem_i[21] m_mem_i[22] m_mem_i[23] m_mem_i[24] m_mem_i[25] m_mem_i[26]
+ m_mem_i[27] m_mem_i[28] m_mem_i[29] m_mem_i[2] m_mem_i[30] m_mem_i[31] m_mem_i[32]
+ m_mem_i[33] m_mem_i[3] m_mem_i[4] m_mem_i[5] m_mem_i[6] m_mem_i[7] m_mem_i[8] m_mem_i[9]
+ m_mem_o[0] m_mem_o[10] m_mem_o[11] m_mem_o[12] m_mem_o[13] m_mem_o[14] m_mem_o[15]
+ m_mem_o[16] m_mem_o[17] m_mem_o[18] m_mem_o[19] m_mem_o[1] m_mem_o[20] m_mem_o[21]
+ m_mem_o[22] m_mem_o[23] m_mem_o[24] m_mem_o[25] m_mem_o[26] m_mem_o[27] m_mem_o[28]
+ m_mem_o[29] m_mem_o[2] m_mem_o[30] m_mem_o[31] m_mem_o[36] m_mem_o[37] m_mem_o[38]
+ m_mem_o[39] m_mem_o[3] m_mem_o[40] m_mem_o[41] m_mem_o[42] m_mem_o[43] m_mem_o[44]
+ m_mem_o[45] m_mem_o[46] m_mem_o[47] m_mem_o[48] m_mem_o[49] m_mem_o[4] m_mem_o[50]
+ m_mem_o[51] m_mem_o[52] m_mem_o[53] m_mem_o[54] m_mem_o[55] m_mem_o[56] m_mem_o[57]
+ m_mem_o[58] m_mem_o[59] m_mem_o[5] m_mem_o[60] m_mem_o[61] m_mem_o[62] m_mem_o[63]
+ m_mem_o[64] m_mem_o[65] m_mem_o[66] m_mem_o[67] m_mem_o[68] m_mem_o[6] m_mem_o[7]
+ m_mem_o[8] m_mem_o[9] nrst_i s_core_i[0] s_core_i[10] s_core_i[11] s_core_i[12]
+ s_core_i[13] s_core_i[14] s_core_i[15] s_core_i[16] s_core_i[17] s_core_i[18] s_core_i[19]
+ s_core_i[1] s_core_i[20] s_core_i[21] s_core_i[22] s_core_i[23] s_core_i[24] s_core_i[25]
+ s_core_i[26] s_core_i[27] s_core_i[28] s_core_i[29] s_core_i[2] s_core_i[30] s_core_i[31]
+ s_core_i[32] s_core_i[33] s_core_i[34] s_core_i[35] s_core_i[36] s_core_i[37] s_core_i[38]
+ s_core_i[39] s_core_i[3] s_core_i[40] s_core_i[41] s_core_i[42] s_core_i[43] s_core_i[44]
+ s_core_i[45] s_core_i[46] s_core_i[47] s_core_i[48] s_core_i[49] s_core_i[4] s_core_i[50]
+ s_core_i[51] s_core_i[52] s_core_i[53] s_core_i[54] s_core_i[55] s_core_i[56] s_core_i[57]
+ s_core_i[58] s_core_i[59] s_core_i[5] s_core_i[60] s_core_i[61] s_core_i[62] s_core_i[63]
+ s_core_i[64] s_core_i[65] s_core_i[66] s_core_i[67] s_core_i[68] s_core_i[6] s_core_i[7]
+ s_core_i[8] s_core_i[9] s_core_o[0] s_core_o[10] s_core_o[11] s_core_o[12] s_core_o[13]
+ s_core_o[14] s_core_o[15] s_core_o[16] s_core_o[17] s_core_o[18] s_core_o[19] s_core_o[1]
+ s_core_o[20] s_core_o[21] s_core_o[22] s_core_o[23] s_core_o[24] s_core_o[25] s_core_o[26]
+ s_core_o[27] s_core_o[28] s_core_o[29] s_core_o[2] s_core_o[30] s_core_o[31] s_core_o[32]
+ s_core_o[33] s_core_o[3] s_core_o[4] s_core_o[5] s_core_o[6] s_core_o[7] s_core_o[8]
+ s_core_o[9] vccd1 vssd1 m_mem_o[35] m_mem_o[34] m_mem_o[33] m_mem_o[32]
XFILLER_0_94_77 vssd1 vssd1 vccd1 vccd1 sky130_fd_sc_hd__decap_6
XFILLER_0_94_1111 vssd1 vssd1 vccd1 vccd1 sky130_fd_sc_hd__decap_8
X_05903_ _02044_ _02045_ _02179_ vssd1 vssd1 vccd1 vccd1 _02180_ sky130_fd_sc_hd__or3_1
X_06883_ sram_out_data\[27\] net181 _03123_ vssd1 vssd1 vccd1 vccd1 _03131_ sky130_fd_sc_hd__mux2_1
X_09671_ req_tag\[19\] vssd1 vssd1 vccd1 vccd1 _04789_ sky130_fd_sc_hd__clkbuf_4
XFILLER_0_241_529 vssd1 vssd1 vccd1 vccd1 sky130_ef_sc_hd__decap_12
XFILLER_0_59_1253 vssd1 vssd1 vccd1 vccd1 sky130_fd_sc_hd__decap_8
XFILLER_0_119_1129 vssd1 vssd1 vccd1 vccd1 sky130_fd_sc_hd__decap_6
XFILLER_0_234_581 vssd1 vssd1 vccd1 vccd1 sky130_fd_sc_hd__decap_6
X_05834_ tag\[61\]\[18\] _02107_ _01780_ vssd1 vssd1 vccd1 vccd1 _02111_ sky130_fd_sc_hd__and3_1
X_08622_ _04093_ tag\[15\]\[16\] _04215_ vssd1 vssd1 vccd1 vccd1 _04223_ sky130_fd_sc_hd__mux2_1
XFILLER_0_27_93 vssd1 vssd1 vccd1 vccd1 sky130_ef_sc_hd__decap_12
XFILLER_0_55_1128 vssd1 vssd1 vccd1 vccd1 sky130_fd_sc_hd__fill_1
XFILLER_0_94_1199 vssd1 vssd1 vccd1 vccd1 sky130_fd_sc_hd__decap_4
X_08553_ _04187_ vssd1 vssd1 vccd1 vccd1 _00640_ sky130_fd_sc_hd__clkbuf_1
X_05765_ _02028_ _02031_ _02033_ _02041_ vssd1 vssd1 vccd1 vccd1 _02042_ sky130_fd_sc_hd__nor4_1
X_07504_ _03545_ vssd1 vssd1 vccd1 vccd1 _00233_ sky130_fd_sc_hd__clkbuf_1
XFILLER_0_76_133 vssd1 vssd1 vccd1 vccd1 sky130_fd_sc_hd__decap_6
XFILLER_0_193_105 vssd1 vssd1 vccd1 vccd1 sky130_fd_sc_hd__decap_6
X_08484_ _03582_ vssd1 vssd1 vccd1 vccd1 _04152_ sky130_fd_sc_hd__buf_6
XFILLER_0_134_83 vssd1 vssd1 vccd1 vccd1 sky130_fd_sc_hd__fill_1
X_05696_ _01653_ vssd1 vssd1 vccd1 vccd1 _01973_ sky130_fd_sc_hd__buf_4
XFILLER_0_18_701 vssd1 vssd1 vccd1 vccd1 sky130_ef_sc_hd__decap_12
XFILLER_0_43_81 vssd1 vssd1 vccd1 vccd1 sky130_ef_sc_hd__decap_12
XFILLER_0_193_149 vssd1 vssd1 vccd1 vccd1 sky130_ef_sc_hd__decap_12
X_07435_ _03490_ _03503_ _03495_ sram_in_data\[7\] vssd1 vssd1 vccd1 vccd1 _00206_
+ sky130_fd_sc_hd__o2bb2a_1
XFILLER_0_76_177 vssd1 vssd1 vccd1 vccd1 sky130_fd_sc_hd__decap_3
XFILLER_0_91_125 vssd1 vssd1 vccd1 vccd1 sky130_ef_sc_hd__decap_12
XFILLER_0_169_1241 vssd1 vssd1 vccd1 vccd1 sky130_fd_sc_hd__fill_1
X_07366_ net28 _05294_ _01636_ vssd1 vssd1 vccd1 vccd1 _03452_ sky130_fd_sc_hd__and3_1
XFILLER_0_45_553 vssd1 vssd1 vccd1 vccd1 sky130_fd_sc_hd__decap_6
XFILLER_0_91_169 vssd1 vssd1 vccd1 vccd1 sky130_fd_sc_hd__decap_8
XFILLER_0_18_789 vssd1 vssd1 vccd1 vccd1 sky130_ef_sc_hd__decap_12
X_06317_ tag\[9\]\[19\] _02006_ _01992_ vssd1 vssd1 vccd1 vccd1 _02594_ sky130_fd_sc_hd__and3_1
X_09105_ _04294_ tag\[27\]\[2\] _03645_ vssd1 vssd1 vccd1 vccd1 _04480_ sky130_fd_sc_hd__mux2_1
XFILLER_0_66_1224 vssd1 vssd1 vccd1 vccd1 sky130_ef_sc_hd__decap_12
XFILLER_0_45_597 vssd1 vssd1 vccd1 vccd1 sky130_ef_sc_hd__decap_12
X_07297_ _01863_ vssd1 vssd1 vccd1 vccd1 _03397_ sky130_fd_sc_hd__buf_2
X_09036_ _04444_ vssd1 vssd1 vccd1 vccd1 _00866_ sky130_fd_sc_hd__clkbuf_1
XFILLER_0_206_1113 vssd1 vssd1 vccd1 vccd1 sky130_fd_sc_hd__fill_1
XFILLER_0_245_1173 vssd1 vssd1 vccd1 vccd1 sky130_fd_sc_hd__decap_3
X_06248_ tag\[51\]\[9\] _02164_ _01679_ vssd1 vssd1 vccd1 vccd1 _02525_ sky130_fd_sc_hd__and3_1
XFILLER_0_131_934 vssd1 vssd1 vccd1 vccd1 sky130_ef_sc_hd__decap_12
XFILLER_0_249_629 vssd1 vssd1 vccd1 vccd1 sky130_ef_sc_hd__decap_12
XFILLER_0_241_1026 vssd1 vssd1 vccd1 vccd1 sky130_fd_sc_hd__fill_1
XFILLER_0_13_461 vssd1 vssd1 vccd1 vccd1 sky130_ef_sc_hd__decap_12
XFILLER_0_248_139 vssd1 vssd1 vccd1 vccd1 sky130_fd_sc_hd__fill_1
X_06179_ _02446_ _02450_ _02454_ _02455_ vssd1 vssd1 vccd1 vccd1 _02456_ sky130_fd_sc_hd__or4_1
XFILLER_0_29_1090 vssd1 vssd1 vccd1 vccd1 sky130_fd_sc_hd__decap_3
XFILLER_0_7_81 vssd1 vssd1 vccd1 vccd1 sky130_ef_sc_hd__decap_12
XFILLER_0_229_39 vssd1 vssd1 vccd1 vccd1 sky130_ef_sc_hd__decap_12
XFILLER_0_257_673 vssd1 vssd1 vccd1 vccd1 sky130_ef_sc_hd__decap_12
XFILLER_0_244_301 vssd1 vssd1 vccd1 vccd1 sky130_fd_sc_hd__decap_6
XFILLER_0_141_1182 vssd1 vssd1 vccd1 vccd1 sky130_fd_sc_hd__decap_8
XFILLER_0_102_1144 vssd1 vssd1 vccd1 vccd1 sky130_fd_sc_hd__decap_3
X_09938_ _03723_ vssd1 vssd1 vccd1 vccd1 _04926_ sky130_fd_sc_hd__clkbuf_8
XFILLER_0_217_559 vssd1 vssd1 vccd1 vccd1 sky130_fd_sc_hd__fill_1
XFILLER_0_244_345 vssd1 vssd1 vccd1 vccd1 sky130_ef_sc_hd__decap_12
XFILLER_0_260_805 vssd1 vssd1 vccd1 vccd1 sky130_fd_sc_hd__decap_6
XFILLER_0_102_1188 vssd1 vssd1 vccd1 vccd1 sky130_fd_sc_hd__fill_1
XFILLER_0_245_27 vssd1 vssd1 vccd1 vccd1 sky130_ef_sc_hd__decap_12
XFILLER_0_137_1207 vssd1 vssd1 vccd1 vccd1 sky130_fd_sc_hd__decap_3
XFILLER_0_204_209 vssd1 vssd1 vccd1 vccd1 sky130_ef_sc_hd__decap_12
X_09869_ _04781_ tag\[44\]\[15\] _04884_ vssd1 vssd1 vccd1 vccd1 _04891_ sky130_fd_sc_hd__mux2_1
XFILLER_0_244_389 vssd1 vssd1 vccd1 vccd1 sky130_ef_sc_hd__decap_12
XTAP_3202 vssd1 vccd1 sky130_fd_sc_hd__tapvpwrvgnd_1
XFILLER_0_260_849 vssd1 vssd1 vccd1 vccd1 sky130_ef_sc_hd__decap_12
XFILLER_0_252_1100 vssd1 vssd1 vccd1 vccd1 sky130_fd_sc_hd__decap_8
XFILLER_0_213_721 vssd1 vssd1 vccd1 vccd1 sky130_fd_sc_hd__decap_6
XTAP_3213 vssd1 vccd1 sky130_fd_sc_hd__tapvpwrvgnd_1
XTAP_3224 vssd1 vccd1 sky130_fd_sc_hd__tapvpwrvgnd_1
X_11900_ net563 _01258_ net336 vssd1 vssd1 vccd1 vccd1 tag\[45\]\[0\] sky130_fd_sc_hd__dfrtp_1
XFILLER_0_217_1231 vssd1 vssd1 vccd1 vccd1 sky130_fd_sc_hd__fill_1
XTAP_3235 vssd1 vccd1 sky130_fd_sc_hd__tapvpwrvgnd_1
XTAP_2501 vssd1 vccd1 sky130_fd_sc_hd__tapvpwrvgnd_1
XFILLER_0_169_113 vssd1 vssd1 vccd1 vccd1 sky130_ef_sc_hd__decap_12
XFILLER_0_217_1253 vssd1 vssd1 vccd1 vccd1 sky130_fd_sc_hd__decap_4
XFILLER_0_73_1228 vssd1 vssd1 vccd1 vccd1 sky130_fd_sc_hd__decap_3
XTAP_3246 vssd1 vccd1 sky130_fd_sc_hd__tapvpwrvgnd_1
XFILLER_0_213_765 vssd1 vssd1 vccd1 vccd1 sky130_ef_sc_hd__decap_12
XANTENNA_202 net23 vssd1 vssd1 vccd1 vccd1 sky130_fd_sc_hd__diode_2
XFILLER_0_96_910 vssd1 vssd1 vccd1 vccd1 sky130_ef_sc_hd__decap_12
XTAP_2512 vssd1 vccd1 sky130_fd_sc_hd__tapvpwrvgnd_1
XTAP_3257 vssd1 vccd1 sky130_fd_sc_hd__tapvpwrvgnd_1
XANTENNA_213 net25 vssd1 vssd1 vccd1 vccd1 sky130_fd_sc_hd__diode_2
XTAP_2523 vssd1 vccd1 sky130_fd_sc_hd__tapvpwrvgnd_1
XTAP_3268 vssd1 vccd1 sky130_fd_sc_hd__tapvpwrvgnd_1
XFILLER_0_212_253 vssd1 vssd1 vccd1 vccd1 sky130_ef_sc_hd__decap_12
X_11831_ net507 _01189_ net285 vssd1 vssd1 vccd1 vccd1 tag\[41\]\[11\] sky130_fd_sc_hd__dfrtp_1
XTAP_2534 vssd1 vccd1 sky130_fd_sc_hd__tapvpwrvgnd_1
XTAP_3279 vssd1 vccd1 sky130_fd_sc_hd__tapvpwrvgnd_1
XTAP_1800 vssd1 vccd1 sky130_fd_sc_hd__tapvpwrvgnd_1
XTAP_2545 vssd1 vccd1 sky130_fd_sc_hd__tapvpwrvgnd_1
XANTENNA_224 net78 vssd1 vssd1 vccd1 vccd1 sky130_fd_sc_hd__diode_2
XANTENNA_235 net82 vssd1 vssd1 vccd1 vccd1 sky130_fd_sc_hd__diode_2
XTAP_1811 vssd1 vccd1 sky130_fd_sc_hd__tapvpwrvgnd_1
XFILLER_0_67_111 vssd1 vssd1 vccd1 vccd1 sky130_fd_sc_hd__fill_1
XTAP_2556 vssd1 vccd1 sky130_fd_sc_hd__tapvpwrvgnd_1
XFILLER_0_261_15 vssd1 vssd1 vccd1 vccd1 sky130_ef_sc_hd__decap_12
XTAP_1822 vssd1 vccd1 sky130_fd_sc_hd__tapvpwrvgnd_1
XANTENNA_246 net88 vssd1 vssd1 vccd1 vccd1 sky130_fd_sc_hd__diode_2
XTAP_2567 vssd1 vccd1 sky130_fd_sc_hd__tapvpwrvgnd_1
XANTENNA_257 _01985_ vssd1 vssd1 vccd1 vccd1 sky130_fd_sc_hd__diode_2
XANTENNA_268 sram_in_data\[13\] vssd1 vssd1 vccd1 vccd1 sky130_fd_sc_hd__diode_2
XTAP_1833 vssd1 vccd1 sky130_fd_sc_hd__tapvpwrvgnd_1
XTAP_2578 vssd1 vccd1 sky130_fd_sc_hd__tapvpwrvgnd_1
XTAP_1844 vssd1 vccd1 sky130_fd_sc_hd__tapvpwrvgnd_1
XTAP_2589 vssd1 vccd1 sky130_fd_sc_hd__tapvpwrvgnd_1
X_11762_ net551 _01120_ net325 vssd1 vssd1 vccd1 vccd1 tag\[38\]\[2\] sky130_fd_sc_hd__dfrtp_1
XANTENNA_279 sram_in_data\[28\] vssd1 vssd1 vccd1 vccd1 sky130_fd_sc_hd__diode_2
XTAP_1855 vssd1 vccd1 sky130_fd_sc_hd__tapvpwrvgnd_1
XTAP_1866 vssd1 vccd1 sky130_fd_sc_hd__tapvpwrvgnd_1
XFILLER_0_67_177 vssd1 vssd1 vccd1 vccd1 sky130_fd_sc_hd__decap_3
XTAP_1877 vssd1 vccd1 sky130_fd_sc_hd__tapvpwrvgnd_1
X_10713_ net538 _00076_ net315 vssd1 vssd1 vccd1 vccd1 tag\[63\]\[16\] sky130_fd_sc_hd__dfrtp_1
XTAP_1888 vssd1 vccd1 sky130_fd_sc_hd__tapvpwrvgnd_1
XTAP_1899 vssd1 vccd1 sky130_fd_sc_hd__tapvpwrvgnd_1
X_11693_ net514 _01051_ net292 vssd1 vssd1 vccd1 vccd1 tag\[34\]\[13\] sky130_fd_sc_hd__dfrtp_1
XFILLER_0_36_531 vssd1 vssd1 vccd1 vccd1 sky130_fd_sc_hd__fill_1
X_10644_ net448 _00007_ net230 vssd1 vssd1 vccd1 vccd1 net192 sky130_fd_sc_hd__dfrtp_1
XFILLER_0_107_931 vssd1 vssd1 vccd1 vccd1 sky130_fd_sc_hd__decap_6
X_10575_ _05262_ vssd1 vssd1 vccd1 vccd1 _01587_ sky130_fd_sc_hd__clkbuf_1
XFILLER_0_3_609 vssd1 vssd1 vccd1 vccd1 sky130_fd_sc_hd__decap_6
XFILLER_0_23_225 vssd1 vssd1 vccd1 vccd1 sky130_ef_sc_hd__decap_12
XFILLER_0_224_1202 vssd1 vssd1 vccd1 vccd1 sky130_fd_sc_hd__fill_2
XFILLER_0_210_41 vssd1 vssd1 vccd1 vccd1 sky130_ef_sc_hd__decap_12
XFILLER_0_224_1213 vssd1 vssd1 vccd1 vccd1 sky130_fd_sc_hd__fill_1
XFILLER_0_210_85 vssd1 vssd1 vccd1 vccd1 sky130_ef_sc_hd__decap_12
XFILLER_0_224_1257 vssd1 vssd1 vccd1 vccd1 sky130_fd_sc_hd__decap_3
XFILLER_0_122_978 vssd1 vssd1 vccd1 vccd1 sky130_fd_sc_hd__fill_1
X_12245_ net601 _01603_ net377 vssd1 vssd1 vccd1 vccd1 tag\[62\]\[5\] sky130_fd_sc_hd__dfrtp_1
XFILLER_0_47_1190 vssd1 vssd1 vccd1 vccd1 sky130_fd_sc_hd__fill_1
XFILLER_0_48_15 vssd1 vssd1 vccd1 vccd1 sky130_ef_sc_hd__decap_12
XFILLER_0_139_39 vssd1 vssd1 vccd1 vccd1 sky130_ef_sc_hd__decap_12
XFILLER_0_107_1088 vssd1 vssd1 vccd1 vccd1 sky130_fd_sc_hd__decap_6
XFILLER_0_254_109 vssd1 vssd1 vccd1 vccd1 sky130_ef_sc_hd__decap_12
X_12176_ net506 _01534_ net284 vssd1 vssd1 vccd1 vccd1 tag\[58\]\[16\] sky130_fd_sc_hd__dfrtp_1
XFILLER_0_247_161 vssd1 vssd1 vccd1 vccd1 sky130_fd_sc_hd__decap_6
XFILLER_0_43_1098 vssd1 vssd1 vccd1 vccd1 sky130_fd_sc_hd__fill_1
X_11127_ net635 _00485_ net409 vssd1 vssd1 vccd1 vccd1 tag\[6\]\[7\] sky130_fd_sc_hd__dfrtp_1
XFILLER_0_78_1117 vssd1 vssd1 vccd1 vccd1 sky130_fd_sc_hd__fill_1
XFILLER_0_263_665 vssd1 vssd1 vccd1 vccd1 sky130_fd_sc_hd__decap_6
XFILLER_0_262_153 vssd1 vssd1 vccd1 vccd1 sky130_ef_sc_hd__decap_12
X_11058_ net524 _00416_ net301 vssd1 vssd1 vccd1 vccd1 tag\[2\]\[18\] sky130_fd_sc_hd__dfrtp_1
XFILLER_0_155_27 vssd1 vssd1 vccd1 vccd1 sky130_ef_sc_hd__decap_12
XFILLER_0_3_39 vssd1 vssd1 vccd1 vccd1 sky130_ef_sc_hd__decap_12
XFILLER_0_223_529 vssd1 vssd1 vccd1 vccd1 sky130_ef_sc_hd__decap_12
XFILLER_0_216_581 vssd1 vssd1 vccd1 vccd1 sky130_fd_sc_hd__decap_6
X_10009_ _04962_ vssd1 vssd1 vccd1 vccd1 _01321_ sky130_fd_sc_hd__clkbuf_1