*SPEF "ieee 1481-1999"
*DESIGN "signext"
*DATE "11:11:11 Fri 11 11, 1111"
*VENDOR "OpenRCX"
*PROGRAM "Parallel Extraction"
*VERSION "1.0"
*DESIGN_FLOW "NAME_SCOPE LOCAL" "PIN_CAP NONE"
*DIVIDER /
*DELIMITER :
*BUS_DELIMITER []
*T_UNIT 1 NS
*C_UNIT 1 PF
*R_UNIT 1 OHM
*L_UNIT 1 HENRY

*NAME_MAP
*1 ext_i
*2 imm_ext_o[0]
*3 imm_ext_o[10]
*4 imm_ext_o[11]
*5 imm_ext_o[12]
*6 imm_ext_o[13]
*7 imm_ext_o[14]
*8 imm_ext_o[15]
*9 imm_ext_o[16]
*10 imm_ext_o[17]
*11 imm_ext_o[18]
*12 imm_ext_o[19]
*13 imm_ext_o[1]
*14 imm_ext_o[20]
*15 imm_ext_o[21]
*16 imm_ext_o[22]
*17 imm_ext_o[23]
*18 imm_ext_o[24]
*19 imm_ext_o[25]
*20 imm_ext_o[26]
*21 imm_ext_o[27]
*22 imm_ext_o[28]
*23 imm_ext_o[29]
*24 imm_ext_o[2]
*25 imm_ext_o[30]
*26 imm_ext_o[31]
*27 imm_ext_o[3]
*28 imm_ext_o[4]
*29 imm_ext_o[5]
*30 imm_ext_o[6]
*31 imm_ext_o[7]
*32 imm_ext_o[8]
*33 imm_ext_o[9]
*34 imm_size_i[0]
*35 imm_size_i[1]
*36 in_i[0]
*37 in_i[10]
*38 in_i[11]
*39 in_i[12]
*40 in_i[13]
*41 in_i[14]
*42 in_i[15]
*43 in_i[16]
*44 in_i[17]
*45 in_i[18]
*46 in_i[19]
*47 in_i[1]
*48 in_i[20]
*49 in_i[21]
*50 in_i[22]
*51 in_i[2]
*52 in_i[3]
*53 in_i[4]
*54 in_i[5]
*55 in_i[6]
*56 in_i[7]
*57 in_i[8]
*58 in_i[9]
*61 _00_
*62 _01_
*63 _02_
*64 _03_
*65 _04_
*66 _05_
*67 _06_
*68 _07_
*69 _08_
*70 _09_
*71 _10_
*72 _11_
*73 _12_
*74 _13_
*75 _14_
*76 _15_
*77 _16_
*78 _17_
*79 _18_
*80 _19_
*81 _20_
*82 _21_
*83 _22_
*84 _23_
*85 _24_
*86 _25_
*87 net1
*88 net10
*89 net11
*90 net12
*91 net13
*92 net14
*93 net15
*94 net16
*95 net17
*96 net18
*97 net19
*98 net2
*99 net20
*100 net21
*101 net22
*102 net23
*103 net24
*104 net25
*105 net26
*106 net27
*107 net28
*108 net29
*109 net3
*110 net30
*111 net31
*112 net32
*113 net33
*114 net34
*115 net35
*116 net36
*117 net37
*118 net38
*119 net39
*120 net4
*121 net40
*122 net41
*123 net42
*124 net43
*125 net44
*126 net45
*127 net46
*128 net47
*129 net48
*130 net49
*131 net5
*132 net50
*133 net51
*134 net52
*135 net53
*136 net54
*137 net55
*138 net56
*139 net57
*140 net58
*141 net6
*142 net7
*143 net8
*144 net9
*145 ANTENNA__26__A
*146 ANTENNA__27__B
*147 ANTENNA__28__A
*148 ANTENNA__29__B
*149 ANTENNA__32__A
*150 ANTENNA__38__B
*151 ANTENNA__41__B
*152 ANTENNA__51__B
*153 ANTENNA__53__B
*154 ANTENNA__55__B
*155 ANTENNA__57__B
*156 ANTENNA__59__B
*157 ANTENNA__63__A
*158 ANTENNA__64__A
*159 ANTENNA__65__A
*160 ANTENNA__66__A
*161 ANTENNA__67__A
*162 ANTENNA__68__A
*163 ANTENNA__69__A
*164 ANTENNA__70__A
*165 ANTENNA__71__A
*166 ANTENNA__72__A
*167 ANTENNA__73__A
*168 ANTENNA__74__A
*169 ANTENNA__75__A
*170 ANTENNA__76__A
*171 ANTENNA__77__A
*172 ANTENNA__78__A
*173 ANTENNA__79__A
*174 ANTENNA__80__A
*175 ANTENNA__81__A
*176 ANTENNA__82__A
*177 ANTENNA__83__A
*178 ANTENNA_output28_A
*179 ANTENNA_output29_A
*180 ANTENNA_output30_A
*181 ANTENNA_output31_A
*182 ANTENNA_output32_A
*183 ANTENNA_output33_A
*184 ANTENNA_output34_A
*185 ANTENNA_output35_A
*186 ANTENNA_output36_A
*187 ANTENNA_output37_A
*188 ANTENNA_output38_A
*189 ANTENNA_output39_A
*190 ANTENNA_output40_A
*191 ANTENNA_output41_A
*192 ANTENNA_output51_A
*193 ANTENNA_output52_A
*194 ANTENNA_output53_A
*195 ANTENNA_output54_A
*196 ANTENNA_output56_A
*197 ANTENNA_output58_A
*198 FILLER_0_0_11
*199 FILLER_0_0_111
*200 FILLER_0_0_113
*201 FILLER_0_0_117
*202 FILLER_0_0_123
*203 FILLER_0_0_141
*204 FILLER_0_0_145
*205 FILLER_0_0_151
*206 FILLER_0_0_169
*207 FILLER_0_0_173
*208 FILLER_0_0_179
*209 FILLER_0_0_197
*210 FILLER_0_0_201
*211 FILLER_0_0_207
*212 FILLER_0_0_241
*213 FILLER_0_0_245
*214 FILLER_0_0_251
*215 FILLER_0_0_269
*216 FILLER_0_0_273
*217 FILLER_0_0_279
*218 FILLER_0_0_29
*219 FILLER_0_0_297
*220 FILLER_0_0_3
*221 FILLER_0_0_301
*222 FILLER_0_0_305
*223 FILLER_0_0_325
*224 FILLER_0_0_329
*225 FILLER_0_0_33
*226 FILLER_0_0_332
*227 FILLER_0_0_353
*228 FILLER_0_0_361
*229 FILLER_0_0_387
*230 FILLER_0_0_39
*231 FILLER_0_0_391
*232 FILLER_0_0_393
*233 FILLER_0_0_405
*234 FILLER_0_0_57
*235 FILLER_0_0_61
*236 FILLER_0_0_67
*237 FILLER_0_0_85
*238 FILLER_0_0_89
*239 FILLER_0_10_109
*240 FILLER_0_10_121
*241 FILLER_0_10_133
*242 FILLER_0_10_139
*243 FILLER_0_10_141
*244 FILLER_0_10_15
*245 FILLER_0_10_153
*246 FILLER_0_10_165
*247 FILLER_0_10_177
*248 FILLER_0_10_189
*249 FILLER_0_10_195
*250 FILLER_0_10_197
*251 FILLER_0_10_209
*252 FILLER_0_10_221
*253 FILLER_0_10_233
*254 FILLER_0_10_245
*255 FILLER_0_10_251
*256 FILLER_0_10_253
*257 FILLER_0_10_265
*258 FILLER_0_10_27
*259 FILLER_0_10_277
*260 FILLER_0_10_289
*261 FILLER_0_10_29
*262 FILLER_0_10_3
*263 FILLER_0_10_301
*264 FILLER_0_10_307
*265 FILLER_0_10_309
*266 FILLER_0_10_321
*267 FILLER_0_10_333
*268 FILLER_0_10_345
*269 FILLER_0_10_357
*270 FILLER_0_10_363
*271 FILLER_0_10_365
*272 FILLER_0_10_377
*273 FILLER_0_10_389
*274 FILLER_0_10_401
*275 FILLER_0_10_41
*276 FILLER_0_10_53
*277 FILLER_0_10_65
*278 FILLER_0_10_77
*279 FILLER_0_10_83
*280 FILLER_0_10_85
*281 FILLER_0_10_97
*282 FILLER_0_11_105
*283 FILLER_0_11_111
*284 FILLER_0_11_113
*285 FILLER_0_11_125
*286 FILLER_0_11_137
*287 FILLER_0_11_149
*288 FILLER_0_11_15
*289 FILLER_0_11_161
*290 FILLER_0_11_167
*291 FILLER_0_11_169
*292 FILLER_0_11_181
*293 FILLER_0_11_193
*294 FILLER_0_11_205
*295 FILLER_0_11_217
*296 FILLER_0_11_223
*297 FILLER_0_11_225
*298 FILLER_0_11_237
*299 FILLER_0_11_249
*300 FILLER_0_11_261
*301 FILLER_0_11_27
*302 FILLER_0_11_273
*303 FILLER_0_11_279
*304 FILLER_0_11_281
*305 FILLER_0_11_293
*306 FILLER_0_11_3
*307 FILLER_0_11_305
*308 FILLER_0_11_317
*309 FILLER_0_11_329
*310 FILLER_0_11_335
*311 FILLER_0_11_337
*312 FILLER_0_11_349
*313 FILLER_0_11_361
*314 FILLER_0_11_373
*315 FILLER_0_11_385
*316 FILLER_0_11_39
*317 FILLER_0_11_391
*318 FILLER_0_11_393
*319 FILLER_0_11_405
*320 FILLER_0_11_51
*321 FILLER_0_11_55
*322 FILLER_0_11_57
*323 FILLER_0_11_69
*324 FILLER_0_11_81
*325 FILLER_0_11_93
*326 FILLER_0_12_109
*327 FILLER_0_12_121
*328 FILLER_0_12_133
*329 FILLER_0_12_139
*330 FILLER_0_12_141
*331 FILLER_0_12_15
*332 FILLER_0_12_153
*333 FILLER_0_12_165
*334 FILLER_0_12_177
*335 FILLER_0_12_189
*336 FILLER_0_12_195
*337 FILLER_0_12_197
*338 FILLER_0_12_209
*339 FILLER_0_12_221
*340 FILLER_0_12_233
*341 FILLER_0_12_245
*342 FILLER_0_12_251
*343 FILLER_0_12_253
*344 FILLER_0_12_265
*345 FILLER_0_12_27
*346 FILLER_0_12_277
*347 FILLER_0_12_289
*348 FILLER_0_12_29
*349 FILLER_0_12_3
*350 FILLER_0_12_301
*351 FILLER_0_12_307
*352 FILLER_0_12_309
*353 FILLER_0_12_321
*354 FILLER_0_12_333
*355 FILLER_0_12_345
*356 FILLER_0_12_357
*357 FILLER_0_12_363
*358 FILLER_0_12_365
*359 FILLER_0_12_377
*360 FILLER_0_12_389
*361 FILLER_0_12_401
*362 FILLER_0_12_41
*363 FILLER_0_12_53
*364 FILLER_0_12_65
*365 FILLER_0_12_77
*366 FILLER_0_12_83
*367 FILLER_0_12_85
*368 FILLER_0_12_97
*369 FILLER_0_13_105
*370 FILLER_0_13_111
*371 FILLER_0_13_113
*372 FILLER_0_13_125
*373 FILLER_0_13_137
*374 FILLER_0_13_149
*375 FILLER_0_13_15
*376 FILLER_0_13_161
*377 FILLER_0_13_167
*378 FILLER_0_13_169
*379 FILLER_0_13_181
*380 FILLER_0_13_193
*381 FILLER_0_13_205
*382 FILLER_0_13_217
*383 FILLER_0_13_223
*384 FILLER_0_13_225
*385 FILLER_0_13_237
*386 FILLER_0_13_249
*387 FILLER_0_13_261
*388 FILLER_0_13_27
*389 FILLER_0_13_273
*390 FILLER_0_13_279
*391 FILLER_0_13_281
*392 FILLER_0_13_293
*393 FILLER_0_13_3
*394 FILLER_0_13_305
*395 FILLER_0_13_317
*396 FILLER_0_13_329
*397 FILLER_0_13_335
*398 FILLER_0_13_337
*399 FILLER_0_13_349
*400 FILLER_0_13_361
*401 FILLER_0_13_373
*402 FILLER_0_13_385
*403 FILLER_0_13_39
*404 FILLER_0_13_391
*405 FILLER_0_13_393
*406 FILLER_0_13_405
*407 FILLER_0_13_51
*408 FILLER_0_13_55
*409 FILLER_0_13_57
*410 FILLER_0_13_69
*411 FILLER_0_13_81
*412 FILLER_0_13_93
*413 FILLER_0_14_109
*414 FILLER_0_14_121
*415 FILLER_0_14_133
*416 FILLER_0_14_139
*417 FILLER_0_14_141
*418 FILLER_0_14_15
*419 FILLER_0_14_153
*420 FILLER_0_14_165
*421 FILLER_0_14_177
*422 FILLER_0_14_189
*423 FILLER_0_14_195
*424 FILLER_0_14_197
*425 FILLER_0_14_209
*426 FILLER_0_14_221
*427 FILLER_0_14_233
*428 FILLER_0_14_245
*429 FILLER_0_14_251
*430 FILLER_0_14_253
*431 FILLER_0_14_265
*432 FILLER_0_14_27
*433 FILLER_0_14_277
*434 FILLER_0_14_289
*435 FILLER_0_14_29
*436 FILLER_0_14_3
*437 FILLER_0_14_301
*438 FILLER_0_14_307
*439 FILLER_0_14_309
*440 FILLER_0_14_321
*441 FILLER_0_14_333
*442 FILLER_0_14_345
*443 FILLER_0_14_357
*444 FILLER_0_14_363
*445 FILLER_0_14_365
*446 FILLER_0_14_377
*447 FILLER_0_14_389
*448 FILLER_0_14_401
*449 FILLER_0_14_41
*450 FILLER_0_14_53
*451 FILLER_0_14_65
*452 FILLER_0_14_77
*453 FILLER_0_14_83
*454 FILLER_0_14_85
*455 FILLER_0_14_97
*456 FILLER_0_15_105
*457 FILLER_0_15_111
*458 FILLER_0_15_113
*459 FILLER_0_15_125
*460 FILLER_0_15_137
*461 FILLER_0_15_149
*462 FILLER_0_15_15
*463 FILLER_0_15_161
*464 FILLER_0_15_167
*465 FILLER_0_15_169
*466 FILLER_0_15_181
*467 FILLER_0_15_193
*468 FILLER_0_15_205
*469 FILLER_0_15_217
*470 FILLER_0_15_223
*471 FILLER_0_15_225
*472 FILLER_0_15_237
*473 FILLER_0_15_249
*474 FILLER_0_15_261
*475 FILLER_0_15_27
*476 FILLER_0_15_273
*477 FILLER_0_15_279
*478 FILLER_0_15_281
*479 FILLER_0_15_293
*480 FILLER_0_15_3
*481 FILLER_0_15_305
*482 FILLER_0_15_317
*483 FILLER_0_15_329
*484 FILLER_0_15_335
*485 FILLER_0_15_337
*486 FILLER_0_15_349
*487 FILLER_0_15_361
*488 FILLER_0_15_373
*489 FILLER_0_15_385
*490 FILLER_0_15_39
*491 FILLER_0_15_391
*492 FILLER_0_15_393
*493 FILLER_0_15_405
*494 FILLER_0_15_51
*495 FILLER_0_15_55
*496 FILLER_0_15_57
*497 FILLER_0_15_69
*498 FILLER_0_15_81
*499 FILLER_0_15_93
*500 FILLER_0_16_109
*501 FILLER_0_16_121
*502 FILLER_0_16_133
*503 FILLER_0_16_139
*504 FILLER_0_16_141
*505 FILLER_0_16_15
*506 FILLER_0_16_153
*507 FILLER_0_16_165
*508 FILLER_0_16_177
*509 FILLER_0_16_189
*510 FILLER_0_16_195
*511 FILLER_0_16_197
*512 FILLER_0_16_209
*513 FILLER_0_16_221
*514 FILLER_0_16_233
*515 FILLER_0_16_245
*516 FILLER_0_16_251
*517 FILLER_0_16_253
*518 FILLER_0_16_265
*519 FILLER_0_16_27
*520 FILLER_0_16_277
*521 FILLER_0_16_289
*522 FILLER_0_16_29
*523 FILLER_0_16_3
*524 FILLER_0_16_301
*525 FILLER_0_16_307
*526 FILLER_0_16_309
*527 FILLER_0_16_321
*528 FILLER_0_16_333
*529 FILLER_0_16_345
*530 FILLER_0_16_357
*531 FILLER_0_16_363
*532 FILLER_0_16_365
*533 FILLER_0_16_377
*534 FILLER_0_16_389
*535 FILLER_0_16_401
*536 FILLER_0_16_41
*537 FILLER_0_16_53
*538 FILLER_0_16_65
*539 FILLER_0_16_77
*540 FILLER_0_16_83
*541 FILLER_0_16_85
*542 FILLER_0_16_97
*543 FILLER_0_17_105
*544 FILLER_0_17_111
*545 FILLER_0_17_113
*546 FILLER_0_17_125
*547 FILLER_0_17_137
*548 FILLER_0_17_149
*549 FILLER_0_17_15
*550 FILLER_0_17_161
*551 FILLER_0_17_167
*552 FILLER_0_17_169
*553 FILLER_0_17_181
*554 FILLER_0_17_193
*555 FILLER_0_17_205
*556 FILLER_0_17_217
*557 FILLER_0_17_223
*558 FILLER_0_17_225
*559 FILLER_0_17_237
*560 FILLER_0_17_249
*561 FILLER_0_17_261
*562 FILLER_0_17_27
*563 FILLER_0_17_273
*564 FILLER_0_17_279
*565 FILLER_0_17_281
*566 FILLER_0_17_293
*567 FILLER_0_17_3
*568 FILLER_0_17_305
*569 FILLER_0_17_317
*570 FILLER_0_17_329
*571 FILLER_0_17_335
*572 FILLER_0_17_337
*573 FILLER_0_17_349
*574 FILLER_0_17_361
*575 FILLER_0_17_373
*576 FILLER_0_17_385
*577 FILLER_0_17_39
*578 FILLER_0_17_391
*579 FILLER_0_17_393
*580 FILLER_0_17_405
*581 FILLER_0_17_51
*582 FILLER_0_17_55
*583 FILLER_0_17_57
*584 FILLER_0_17_69
*585 FILLER_0_17_81
*586 FILLER_0_17_93
*587 FILLER_0_18_109
*588 FILLER_0_18_121
*589 FILLER_0_18_133
*590 FILLER_0_18_139
*591 FILLER_0_18_141
*592 FILLER_0_18_15
*593 FILLER_0_18_153
*594 FILLER_0_18_165
*595 FILLER_0_18_177
*596 FILLER_0_18_189
*597 FILLER_0_18_195
*598 FILLER_0_18_197
*599 FILLER_0_18_209
*600 FILLER_0_18_221
*601 FILLER_0_18_233
*602 FILLER_0_18_245
*603 FILLER_0_18_251
*604 FILLER_0_18_253
*605 FILLER_0_18_265
*606 FILLER_0_18_27
*607 FILLER_0_18_277
*608 FILLER_0_18_289
*609 FILLER_0_18_29
*610 FILLER_0_18_3
*611 FILLER_0_18_301
*612 FILLER_0_18_307
*613 FILLER_0_18_309
*614 FILLER_0_18_321
*615 FILLER_0_18_333
*616 FILLER_0_18_345
*617 FILLER_0_18_357
*618 FILLER_0_18_363
*619 FILLER_0_18_365
*620 FILLER_0_18_377
*621 FILLER_0_18_389
*622 FILLER_0_18_401
*623 FILLER_0_18_41
*624 FILLER_0_18_53
*625 FILLER_0_18_65
*626 FILLER_0_18_77
*627 FILLER_0_18_83
*628 FILLER_0_18_85
*629 FILLER_0_18_97
*630 FILLER_0_19_105
*631 FILLER_0_19_111
*632 FILLER_0_19_113
*633 FILLER_0_19_125
*634 FILLER_0_19_137
*635 FILLER_0_19_149
*636 FILLER_0_19_15
*637 FILLER_0_19_161
*638 FILLER_0_19_167
*639 FILLER_0_19_169
*640 FILLER_0_19_181
*641 FILLER_0_19_193
*642 FILLER_0_19_205
*643 FILLER_0_19_217
*644 FILLER_0_19_223
*645 FILLER_0_19_225
*646 FILLER_0_19_237
*647 FILLER_0_19_249
*648 FILLER_0_19_261
*649 FILLER_0_19_27
*650 FILLER_0_19_273
*651 FILLER_0_19_279
*652 FILLER_0_19_281
*653 FILLER_0_19_293
*654 FILLER_0_19_3
*655 FILLER_0_19_305
*656 FILLER_0_19_317
*657 FILLER_0_19_329
*658 FILLER_0_19_335
*659 FILLER_0_19_337
*660 FILLER_0_19_349
*661 FILLER_0_19_361
*662 FILLER_0_19_373
*663 FILLER_0_19_385
*664 FILLER_0_19_39
*665 FILLER_0_19_391
*666 FILLER_0_19_393
*667 FILLER_0_19_405
*668 FILLER_0_19_51
*669 FILLER_0_19_55
*670 FILLER_0_19_57
*671 FILLER_0_19_69
*672 FILLER_0_19_81
*673 FILLER_0_19_93
*674 FILLER_0_1_110
*675 FILLER_0_1_113
*676 FILLER_0_1_137
*677 FILLER_0_1_141
*678 FILLER_0_1_163
*679 FILLER_0_1_167
*680 FILLER_0_1_169
*681 FILLER_0_1_189
*682 FILLER_0_1_193
*683 FILLER_0_1_20
*684 FILLER_0_1_215
*685 FILLER_0_1_219
*686 FILLER_0_1_223
*687 FILLER_0_1_225
*688 FILLER_0_1_229
*689 FILLER_0_1_237
*690 FILLER_0_1_254
*691 FILLER_0_1_258
*692 FILLER_0_1_28
*693 FILLER_0_1_281
*694 FILLER_0_1_285
*695 FILLER_0_1_289
*696 FILLER_0_1_3
*697 FILLER_0_1_309
*698 FILLER_0_1_335
*699 FILLER_0_1_337
*700 FILLER_0_1_374
*701 FILLER_0_1_396
*702 FILLER_0_1_400
*703 FILLER_0_1_406
*704 FILLER_0_1_46
*705 FILLER_0_1_54
*706 FILLER_0_1_73
*707 FILLER_0_1_77
*708 FILLER_0_1_81
*709 FILLER_0_1_98
*710 FILLER_0_20_109
*711 FILLER_0_20_121
*712 FILLER_0_20_133
*713 FILLER_0_20_139
*714 FILLER_0_20_141
*715 FILLER_0_20_15
*716 FILLER_0_20_153
*717 FILLER_0_20_165
*718 FILLER_0_20_177
*719 FILLER_0_20_189
*720 FILLER_0_20_195
*721 FILLER_0_20_197
*722 FILLER_0_20_209
*723 FILLER_0_20_221
*724 FILLER_0_20_233
*725 FILLER_0_20_245
*726 FILLER_0_20_251
*727 FILLER_0_20_253
*728 FILLER_0_20_265
*729 FILLER_0_20_27
*730 FILLER_0_20_277
*731 FILLER_0_20_289
*732 FILLER_0_20_29
*733 FILLER_0_20_3
*734 FILLER_0_20_301
*735 FILLER_0_20_307
*736 FILLER_0_20_309
*737 FILLER_0_20_321
*738 FILLER_0_20_333
*739 FILLER_0_20_345
*740 FILLER_0_20_357
*741 FILLER_0_20_363
*742 FILLER_0_20_365
*743 FILLER_0_20_377
*744 FILLER_0_20_389
*745 FILLER_0_20_401
*746 FILLER_0_20_41
*747 FILLER_0_20_53
*748 FILLER_0_20_65
*749 FILLER_0_20_77
*750 FILLER_0_20_83
*751 FILLER_0_20_85
*752 FILLER_0_20_97
*753 FILLER_0_21_105
*754 FILLER_0_21_111
*755 FILLER_0_21_113
*756 FILLER_0_21_125
*757 FILLER_0_21_137
*758 FILLER_0_21_149
*759 FILLER_0_21_15
*760 FILLER_0_21_161
*761 FILLER_0_21_167
*762 FILLER_0_21_169
*763 FILLER_0_21_181
*764 FILLER_0_21_193
*765 FILLER_0_21_205
*766 FILLER_0_21_217
*767 FILLER_0_21_223
*768 FILLER_0_21_225
*769 FILLER_0_21_237
*770 FILLER_0_21_249
*771 FILLER_0_21_261
*772 FILLER_0_21_27
*773 FILLER_0_21_273
*774 FILLER_0_21_279
*775 FILLER_0_21_281
*776 FILLER_0_21_293
*777 FILLER_0_21_3
*778 FILLER_0_21_305
*779 FILLER_0_21_317
*780 FILLER_0_21_329
*781 FILLER_0_21_335
*782 FILLER_0_21_337
*783 FILLER_0_21_349
*784 FILLER_0_21_361
*785 FILLER_0_21_373
*786 FILLER_0_21_385
*787 FILLER_0_21_39
*788 FILLER_0_21_391
*789 FILLER_0_21_393
*790 FILLER_0_21_405
*791 FILLER_0_21_51
*792 FILLER_0_21_55
*793 FILLER_0_21_57
*794 FILLER_0_21_69
*795 FILLER_0_21_81
*796 FILLER_0_21_93
*797 FILLER_0_22_109
*798 FILLER_0_22_121
*799 FILLER_0_22_133
*800 FILLER_0_22_139
*801 FILLER_0_22_141
*802 FILLER_0_22_15
*803 FILLER_0_22_153
*804 FILLER_0_22_165
*805 FILLER_0_22_177
*806 FILLER_0_22_189
*807 FILLER_0_22_195
*808 FILLER_0_22_197
*809 FILLER_0_22_209
*810 FILLER_0_22_221
*811 FILLER_0_22_233
*812 FILLER_0_22_245
*813 FILLER_0_22_251
*814 FILLER_0_22_253
*815 FILLER_0_22_265
*816 FILLER_0_22_27
*817 FILLER_0_22_277
*818 FILLER_0_22_289
*819 FILLER_0_22_29
*820 FILLER_0_22_3
*821 FILLER_0_22_301
*822 FILLER_0_22_307
*823 FILLER_0_22_309
*824 FILLER_0_22_321
*825 FILLER_0_22_333
*826 FILLER_0_22_345
*827 FILLER_0_22_357
*828 FILLER_0_22_363
*829 FILLER_0_22_365
*830 FILLER_0_22_377
*831 FILLER_0_22_389
*832 FILLER_0_22_401
*833 FILLER_0_22_41
*834 FILLER_0_22_53
*835 FILLER_0_22_65
*836 FILLER_0_22_77
*837 FILLER_0_22_83
*838 FILLER_0_22_85
*839 FILLER_0_22_97
*840 FILLER_0_23_105
*841 FILLER_0_23_111
*842 FILLER_0_23_113
*843 FILLER_0_23_125
*844 FILLER_0_23_137
*845 FILLER_0_23_149
*846 FILLER_0_23_15
*847 FILLER_0_23_161
*848 FILLER_0_23_167
*849 FILLER_0_23_169
*850 FILLER_0_23_181
*851 FILLER_0_23_193
*852 FILLER_0_23_205
*853 FILLER_0_23_217
*854 FILLER_0_23_223
*855 FILLER_0_23_225
*856 FILLER_0_23_237
*857 FILLER_0_23_249
*858 FILLER_0_23_261
*859 FILLER_0_23_27
*860 FILLER_0_23_273
*861 FILLER_0_23_279
*862 FILLER_0_23_281
*863 FILLER_0_23_293
*864 FILLER_0_23_3
*865 FILLER_0_23_305
*866 FILLER_0_23_317
*867 FILLER_0_23_329
*868 FILLER_0_23_335
*869 FILLER_0_23_337
*870 FILLER_0_23_349
*871 FILLER_0_23_361
*872 FILLER_0_23_373
*873 FILLER_0_23_385
*874 FILLER_0_23_39
*875 FILLER_0_23_391
*876 FILLER_0_23_393
*877 FILLER_0_23_405
*878 FILLER_0_23_51
*879 FILLER_0_23_55
*880 FILLER_0_23_57
*881 FILLER_0_23_69
*882 FILLER_0_23_81
*883 FILLER_0_23_93
*884 FILLER_0_24_109
*885 FILLER_0_24_121
*886 FILLER_0_24_133
*887 FILLER_0_24_139
*888 FILLER_0_24_141
*889 FILLER_0_24_15
*890 FILLER_0_24_153
*891 FILLER_0_24_165
*892 FILLER_0_24_177
*893 FILLER_0_24_189
*894 FILLER_0_24_195
*895 FILLER_0_24_197
*896 FILLER_0_24_209
*897 FILLER_0_24_221
*898 FILLER_0_24_233
*899 FILLER_0_24_245
*900 FILLER_0_24_251
*901 FILLER_0_24_253
*902 FILLER_0_24_265
*903 FILLER_0_24_27
*904 FILLER_0_24_277
*905 FILLER_0_24_289
*906 FILLER_0_24_29
*907 FILLER_0_24_3
*908 FILLER_0_24_301
*909 FILLER_0_24_307
*910 FILLER_0_24_309
*911 FILLER_0_24_321
*912 FILLER_0_24_333
*913 FILLER_0_24_345
*914 FILLER_0_24_357
*915 FILLER_0_24_363
*916 FILLER_0_24_365
*917 FILLER_0_24_377
*918 FILLER_0_24_389
*919 FILLER_0_24_401
*920 FILLER_0_24_41
*921 FILLER_0_24_53
*922 FILLER_0_24_65
*923 FILLER_0_24_77
*924 FILLER_0_24_83
*925 FILLER_0_24_85
*926 FILLER_0_24_97
*927 FILLER_0_25_105
*928 FILLER_0_25_111
*929 FILLER_0_25_113
*930 FILLER_0_25_125
*931 FILLER_0_25_137
*932 FILLER_0_25_149
*933 FILLER_0_25_15
*934 FILLER_0_25_161
*935 FILLER_0_25_167
*936 FILLER_0_25_169
*937 FILLER_0_25_181
*938 FILLER_0_25_193
*939 FILLER_0_25_205
*940 FILLER_0_25_217
*941 FILLER_0_25_223
*942 FILLER_0_25_225
*943 FILLER_0_25_237
*944 FILLER_0_25_249
*945 FILLER_0_25_261
*946 FILLER_0_25_27
*947 FILLER_0_25_273
*948 FILLER_0_25_279
*949 FILLER_0_25_281
*950 FILLER_0_25_293
*951 FILLER_0_25_3
*952 FILLER_0_25_305
*953 FILLER_0_25_317
*954 FILLER_0_25_329
*955 FILLER_0_25_335
*956 FILLER_0_25_337
*957 FILLER_0_25_349
*958 FILLER_0_25_361
*959 FILLER_0_25_373
*960 FILLER_0_25_385
*961 FILLER_0_25_39
*962 FILLER_0_25_391
*963 FILLER_0_25_393
*964 FILLER_0_25_405
*965 FILLER_0_25_51
*966 FILLER_0_25_55
*967 FILLER_0_25_57
*968 FILLER_0_25_69
*969 FILLER_0_25_81
*970 FILLER_0_25_93
*971 FILLER_0_26_109
*972 FILLER_0_26_121
*973 FILLER_0_26_133
*974 FILLER_0_26_139
*975 FILLER_0_26_141
*976 FILLER_0_26_15
*977 FILLER_0_26_153
*978 FILLER_0_26_165
*979 FILLER_0_26_177
*980 FILLER_0_26_189
*981 FILLER_0_26_195
*982 FILLER_0_26_197
*983 FILLER_0_26_209
*984 FILLER_0_26_221
*985 FILLER_0_26_233
*986 FILLER_0_26_245
*987 FILLER_0_26_251
*988 FILLER_0_26_253
*989 FILLER_0_26_265
*990 FILLER_0_26_27
*991 FILLER_0_26_277
*992 FILLER_0_26_289
*993 FILLER_0_26_29
*994 FILLER_0_26_3
*995 FILLER_0_26_301
*996 FILLER_0_26_307
*997 FILLER_0_26_309
*998 FILLER_0_26_321
*999 FILLER_0_26_333
*1000 FILLER_0_26_345
*1001 FILLER_0_26_357
*1002 FILLER_0_26_363
*1003 FILLER_0_26_365
*1004 FILLER_0_26_377
*1005 FILLER_0_26_389
*1006 FILLER_0_26_401
*1007 FILLER_0_26_41
*1008 FILLER_0_26_53
*1009 FILLER_0_26_65
*1010 FILLER_0_26_77
*1011 FILLER_0_26_83
*1012 FILLER_0_26_85
*1013 FILLER_0_26_97
*1014 FILLER_0_27_105
*1015 FILLER_0_27_111
*1016 FILLER_0_27_113
*1017 FILLER_0_27_125
*1018 FILLER_0_27_137
*1019 FILLER_0_27_149
*1020 FILLER_0_27_15
*1021 FILLER_0_27_161
*1022 FILLER_0_27_167
*1023 FILLER_0_27_169
*1024 FILLER_0_27_181
*1025 FILLER_0_27_193
*1026 FILLER_0_27_205
*1027 FILLER_0_27_217
*1028 FILLER_0_27_223
*1029 FILLER_0_27_225
*1030 FILLER_0_27_237
*1031 FILLER_0_27_249
*1032 FILLER_0_27_261
*1033 FILLER_0_27_27
*1034 FILLER_0_27_273
*1035 FILLER_0_27_279
*1036 FILLER_0_27_281
*1037 FILLER_0_27_293
*1038 FILLER_0_27_3
*1039 FILLER_0_27_305
*1040 FILLER_0_27_317
*1041 FILLER_0_27_329
*1042 FILLER_0_27_335
*1043 FILLER_0_27_337
*1044 FILLER_0_27_349
*1045 FILLER_0_27_361
*1046 FILLER_0_27_373
*1047 FILLER_0_27_385
*1048 FILLER_0_27_39
*1049 FILLER_0_27_391
*1050 FILLER_0_27_393
*1051 FILLER_0_27_405
*1052 FILLER_0_27_51
*1053 FILLER_0_27_55
*1054 FILLER_0_27_57
*1055 FILLER_0_27_69
*1056 FILLER_0_27_81
*1057 FILLER_0_27_93
*1058 FILLER_0_28_109
*1059 FILLER_0_28_121
*1060 FILLER_0_28_133
*1061 FILLER_0_28_139
*1062 FILLER_0_28_141
*1063 FILLER_0_28_15
*1064 FILLER_0_28_153
*1065 FILLER_0_28_165
*1066 FILLER_0_28_177
*1067 FILLER_0_28_189
*1068 FILLER_0_28_195
*1069 FILLER_0_28_197
*1070 FILLER_0_28_209
*1071 FILLER_0_28_221
*1072 FILLER_0_28_233
*1073 FILLER_0_28_245
*1074 FILLER_0_28_251
*1075 FILLER_0_28_253
*1076 FILLER_0_28_265
*1077 FILLER_0_28_27
*1078 FILLER_0_28_277
*1079 FILLER_0_28_289
*1080 FILLER_0_28_29
*1081 FILLER_0_28_3
*1082 FILLER_0_28_301
*1083 FILLER_0_28_307
*1084 FILLER_0_28_309
*1085 FILLER_0_28_321
*1086 FILLER_0_28_333
*1087 FILLER_0_28_345
*1088 FILLER_0_28_357
*1089 FILLER_0_28_363
*1090 FILLER_0_28_365
*1091 FILLER_0_28_377
*1092 FILLER_0_28_389
*1093 FILLER_0_28_401
*1094 FILLER_0_28_41
*1095 FILLER_0_28_53
*1096 FILLER_0_28_65
*1097 FILLER_0_28_77
*1098 FILLER_0_28_83
*1099 FILLER_0_28_85
*1100 FILLER_0_28_97
*1101 FILLER_0_29_105
*1102 FILLER_0_29_111
*1103 FILLER_0_29_113
*1104 FILLER_0_29_125
*1105 FILLER_0_29_137
*1106 FILLER_0_29_149
*1107 FILLER_0_29_15
*1108 FILLER_0_29_161
*1109 FILLER_0_29_167
*1110 FILLER_0_29_169
*1111 FILLER_0_29_181
*1112 FILLER_0_29_193
*1113 FILLER_0_29_205
*1114 FILLER_0_29_217
*1115 FILLER_0_29_223
*1116 FILLER_0_29_225
*1117 FILLER_0_29_237
*1118 FILLER_0_29_249
*1119 FILLER_0_29_261
*1120 FILLER_0_29_27
*1121 FILLER_0_29_273
*1122 FILLER_0_29_279
*1123 FILLER_0_29_281
*1124 FILLER_0_29_293
*1125 FILLER_0_29_3
*1126 FILLER_0_29_305
*1127 FILLER_0_29_317
*1128 FILLER_0_29_329
*1129 FILLER_0_29_335
*1130 FILLER_0_29_337
*1131 FILLER_0_29_349
*1132 FILLER_0_29_361
*1133 FILLER_0_29_373
*1134 FILLER_0_29_385
*1135 FILLER_0_29_39
*1136 FILLER_0_29_391
*1137 FILLER_0_29_393
*1138 FILLER_0_29_405
*1139 FILLER_0_29_51
*1140 FILLER_0_29_55
*1141 FILLER_0_29_57
*1142 FILLER_0_29_69
*1143 FILLER_0_29_81
*1144 FILLER_0_29_93
*1145 FILLER_0_2_105
*1146 FILLER_0_2_124
*1147 FILLER_0_2_136
*1148 FILLER_0_2_141
*1149 FILLER_0_2_15
*1150 FILLER_0_2_153
*1151 FILLER_0_2_165
*1152 FILLER_0_2_177
*1153 FILLER_0_2_189
*1154 FILLER_0_2_195
*1155 FILLER_0_2_197
*1156 FILLER_0_2_209
*1157 FILLER_0_2_221
*1158 FILLER_0_2_233
*1159 FILLER_0_2_245
*1160 FILLER_0_2_251
*1161 FILLER_0_2_253
*1162 FILLER_0_2_265
*1163 FILLER_0_2_27
*1164 FILLER_0_2_277
*1165 FILLER_0_2_289
*1166 FILLER_0_2_29
*1167 FILLER_0_2_3
*1168 FILLER_0_2_301
*1169 FILLER_0_2_307
*1170 FILLER_0_2_309
*1171 FILLER_0_2_313
*1172 FILLER_0_2_325
*1173 FILLER_0_2_339
*1174 FILLER_0_2_347
*1175 FILLER_0_2_355
*1176 FILLER_0_2_363
*1177 FILLER_0_2_365
*1178 FILLER_0_2_41
*1179 FILLER_0_2_53
*1180 FILLER_0_2_65
*1181 FILLER_0_2_77
*1182 FILLER_0_2_83
*1183 FILLER_0_2_85
*1184 FILLER_0_2_97
*1185 FILLER_0_30_109
*1186 FILLER_0_30_121
*1187 FILLER_0_30_133
*1188 FILLER_0_30_139
*1189 FILLER_0_30_141
*1190 FILLER_0_30_15
*1191 FILLER_0_30_153
*1192 FILLER_0_30_165
*1193 FILLER_0_30_177
*1194 FILLER_0_30_189
*1195 FILLER_0_30_195
*1196 FILLER_0_30_197
*1197 FILLER_0_30_209
*1198 FILLER_0_30_221
*1199 FILLER_0_30_233
*1200 FILLER_0_30_245
*1201 FILLER_0_30_251
*1202 FILLER_0_30_253
*1203 FILLER_0_30_265
*1204 FILLER_0_30_27
*1205 FILLER_0_30_277
*1206 FILLER_0_30_289
*1207 FILLER_0_30_29
*1208 FILLER_0_30_3
*1209 FILLER_0_30_301
*1210 FILLER_0_30_307
*1211 FILLER_0_30_309
*1212 FILLER_0_30_321
*1213 FILLER_0_30_333
*1214 FILLER_0_30_345
*1215 FILLER_0_30_357
*1216 FILLER_0_30_363
*1217 FILLER_0_30_365
*1218 FILLER_0_30_377
*1219 FILLER_0_30_389
*1220 FILLER_0_30_401
*1221 FILLER_0_30_41
*1222 FILLER_0_30_53
*1223 FILLER_0_30_65
*1224 FILLER_0_30_77
*1225 FILLER_0_30_83
*1226 FILLER_0_30_85
*1227 FILLER_0_30_97
*1228 FILLER_0_31_105
*1229 FILLER_0_31_111
*1230 FILLER_0_31_113
*1231 FILLER_0_31_125
*1232 FILLER_0_31_137
*1233 FILLER_0_31_149
*1234 FILLER_0_31_15
*1235 FILLER_0_31_161
*1236 FILLER_0_31_167
*1237 FILLER_0_31_169
*1238 FILLER_0_31_181
*1239 FILLER_0_31_193
*1240 FILLER_0_31_205
*1241 FILLER_0_31_217
*1242 FILLER_0_31_223
*1243 FILLER_0_31_225
*1244 FILLER_0_31_237
*1245 FILLER_0_31_249
*1246 FILLER_0_31_261
*1247 FILLER_0_31_27
*1248 FILLER_0_31_273
*1249 FILLER_0_31_279
*1250 FILLER_0_31_281
*1251 FILLER_0_31_293
*1252 FILLER_0_31_3
*1253 FILLER_0_31_305
*1254 FILLER_0_31_317
*1255 FILLER_0_31_329
*1256 FILLER_0_31_335
*1257 FILLER_0_31_337
*1258 FILLER_0_31_349
*1259 FILLER_0_31_361
*1260 FILLER_0_31_373
*1261 FILLER_0_31_385
*1262 FILLER_0_31_39
*1263 FILLER_0_31_391
*1264 FILLER_0_31_393
*1265 FILLER_0_31_405
*1266 FILLER_0_31_51
*1267 FILLER_0_31_55
*1268 FILLER_0_31_57
*1269 FILLER_0_31_69
*1270 FILLER_0_31_81
*1271 FILLER_0_31_93
*1272 FILLER_0_32_109
*1273 FILLER_0_32_121
*1274 FILLER_0_32_133
*1275 FILLER_0_32_139
*1276 FILLER_0_32_141
*1277 FILLER_0_32_15
*1278 FILLER_0_32_153
*1279 FILLER_0_32_165
*1280 FILLER_0_32_177
*1281 FILLER_0_32_189
*1282 FILLER_0_32_195
*1283 FILLER_0_32_197
*1284 FILLER_0_32_209
*1285 FILLER_0_32_221
*1286 FILLER_0_32_233
*1287 FILLER_0_32_245
*1288 FILLER_0_32_251
*1289 FILLER_0_32_253
*1290 FILLER_0_32_265
*1291 FILLER_0_32_27
*1292 FILLER_0_32_277
*1293 FILLER_0_32_289
*1294 FILLER_0_32_29
*1295 FILLER_0_32_3
*1296 FILLER_0_32_301
*1297 FILLER_0_32_307
*1298 FILLER_0_32_309
*1299 FILLER_0_32_321
*1300 FILLER_0_32_333
*1301 FILLER_0_32_345
*1302 FILLER_0_32_357
*1303 FILLER_0_32_363
*1304 FILLER_0_32_365
*1305 FILLER_0_32_377
*1306 FILLER_0_32_389
*1307 FILLER_0_32_401
*1308 FILLER_0_32_41
*1309 FILLER_0_32_53
*1310 FILLER_0_32_65
*1311 FILLER_0_32_77
*1312 FILLER_0_32_83
*1313 FILLER_0_32_85
*1314 FILLER_0_32_97
*1315 FILLER_0_33_105
*1316 FILLER_0_33_111
*1317 FILLER_0_33_113
*1318 FILLER_0_33_125
*1319 FILLER_0_33_137
*1320 FILLER_0_33_149
*1321 FILLER_0_33_15
*1322 FILLER_0_33_161
*1323 FILLER_0_33_167
*1324 FILLER_0_33_169
*1325 FILLER_0_33_181
*1326 FILLER_0_33_193
*1327 FILLER_0_33_205
*1328 FILLER_0_33_217
*1329 FILLER_0_33_223
*1330 FILLER_0_33_225
*1331 FILLER_0_33_237
*1332 FILLER_0_33_249
*1333 FILLER_0_33_261
*1334 FILLER_0_33_27
*1335 FILLER_0_33_273
*1336 FILLER_0_33_279
*1337 FILLER_0_33_281
*1338 FILLER_0_33_293
*1339 FILLER_0_33_3
*1340 FILLER_0_33_305
*1341 FILLER_0_33_317
*1342 FILLER_0_33_329
*1343 FILLER_0_33_335
*1344 FILLER_0_33_337
*1345 FILLER_0_33_349
*1346 FILLER_0_33_361
*1347 FILLER_0_33_373
*1348 FILLER_0_33_385
*1349 FILLER_0_33_39
*1350 FILLER_0_33_391
*1351 FILLER_0_33_393
*1352 FILLER_0_33_405
*1353 FILLER_0_33_51
*1354 FILLER_0_33_55
*1355 FILLER_0_33_57
*1356 FILLER_0_33_69
*1357 FILLER_0_33_81
*1358 FILLER_0_33_93
*1359 FILLER_0_34_109
*1360 FILLER_0_34_121
*1361 FILLER_0_34_133
*1362 FILLER_0_34_139
*1363 FILLER_0_34_141
*1364 FILLER_0_34_15
*1365 FILLER_0_34_153
*1366 FILLER_0_34_165
*1367 FILLER_0_34_177
*1368 FILLER_0_34_189
*1369 FILLER_0_34_195
*1370 FILLER_0_34_197
*1371 FILLER_0_34_209
*1372 FILLER_0_34_221
*1373 FILLER_0_34_233
*1374 FILLER_0_34_245
*1375 FILLER_0_34_251
*1376 FILLER_0_34_253
*1377 FILLER_0_34_265
*1378 FILLER_0_34_27
*1379 FILLER_0_34_277
*1380 FILLER_0_34_289
*1381 FILLER_0_34_29
*1382 FILLER_0_34_3
*1383 FILLER_0_34_301
*1384 FILLER_0_34_307
*1385 FILLER_0_34_309
*1386 FILLER_0_34_321
*1387 FILLER_0_34_333
*1388 FILLER_0_34_345
*1389 FILLER_0_34_357
*1390 FILLER_0_34_363
*1391 FILLER_0_34_365
*1392 FILLER_0_34_377
*1393 FILLER_0_34_389
*1394 FILLER_0_34_401
*1395 FILLER_0_34_41
*1396 FILLER_0_34_53
*1397 FILLER_0_34_65
*1398 FILLER_0_34_77
*1399 FILLER_0_34_83
*1400 FILLER_0_34_85
*1401 FILLER_0_34_97
*1402 FILLER_0_35_105
*1403 FILLER_0_35_111
*1404 FILLER_0_35_113
*1405 FILLER_0_35_125
*1406 FILLER_0_35_137
*1407 FILLER_0_35_149
*1408 FILLER_0_35_15
*1409 FILLER_0_35_161
*1410 FILLER_0_35_167
*1411 FILLER_0_35_169
*1412 FILLER_0_35_181
*1413 FILLER_0_35_193
*1414 FILLER_0_35_205
*1415 FILLER_0_35_217
*1416 FILLER_0_35_223
*1417 FILLER_0_35_225
*1418 FILLER_0_35_237
*1419 FILLER_0_35_249
*1420 FILLER_0_35_261
*1421 FILLER_0_35_27
*1422 FILLER_0_35_273
*1423 FILLER_0_35_279
*1424 FILLER_0_35_281
*1425 FILLER_0_35_293
*1426 FILLER_0_35_3
*1427 FILLER_0_35_305
*1428 FILLER_0_35_317
*1429 FILLER_0_35_329
*1430 FILLER_0_35_335
*1431 FILLER_0_35_337
*1432 FILLER_0_35_349
*1433 FILLER_0_35_361
*1434 FILLER_0_35_373
*1435 FILLER_0_35_385
*1436 FILLER_0_35_39
*1437 FILLER_0_35_391
*1438 FILLER_0_35_393
*1439 FILLER_0_35_405
*1440 FILLER_0_35_51
*1441 FILLER_0_35_55
*1442 FILLER_0_35_57
*1443 FILLER_0_35_69
*1444 FILLER_0_35_81
*1445 FILLER_0_35_93
*1446 FILLER_0_36_109
*1447 FILLER_0_36_121
*1448 FILLER_0_36_133
*1449 FILLER_0_36_139
*1450 FILLER_0_36_141
*1451 FILLER_0_36_15
*1452 FILLER_0_36_153
*1453 FILLER_0_36_165
*1454 FILLER_0_36_177
*1455 FILLER_0_36_189
*1456 FILLER_0_36_195
*1457 FILLER_0_36_197
*1458 FILLER_0_36_209
*1459 FILLER_0_36_221
*1460 FILLER_0_36_233
*1461 FILLER_0_36_245
*1462 FILLER_0_36_251
*1463 FILLER_0_36_253
*1464 FILLER_0_36_265
*1465 FILLER_0_36_27
*1466 FILLER_0_36_277
*1467 FILLER_0_36_289
*1468 FILLER_0_36_29
*1469 FILLER_0_36_3
*1470 FILLER_0_36_301
*1471 FILLER_0_36_307
*1472 FILLER_0_36_309
*1473 FILLER_0_36_321