*SPEF "ieee 1481-1999"
*DESIGN "accumulator_m"
*DATE "11:11:11 Fri 11 11, 1111"
*VENDOR "OpenRCX"
*PROGRAM "Parallel Extraction"
*VERSION "1.0"
*DESIGN_FLOW "NAME_SCOPE LOCAL" "PIN_CAP NONE"
*DIVIDER /
*DELIMITER :
*BUS_DELIMITER []
*T_UNIT 1 NS
*C_UNIT 1 PF
*R_UNIT 1 OHM
*L_UNIT 1 HENRY

*NAME_MAP
*1 a_i[0]
*2 a_i[10]
*3 a_i[11]
*4 a_i[12]
*5 a_i[13]
*6 a_i[14]
*7 a_i[15]
*8 a_i[16]
*9 a_i[17]
*10 a_i[18]
*11 a_i[19]
*12 a_i[1]
*13 a_i[20]
*14 a_i[21]
*15 a_i[22]
*16 a_i[23]
*17 a_i[24]
*18 a_i[25]
*19 a_i[26]
*20 a_i[27]
*21 a_i[28]
*22 a_i[29]
*23 a_i[2]
*24 a_i[30]
*25 a_i[31]
*26 a_i[3]
*27 a_i[4]
*28 a_i[5]
*29 a_i[6]
*30 a_i[7]
*31 a_i[8]
*32 a_i[9]
*33 acc_o[0]
*34 acc_o[10]
*35 acc_o[11]
*36 acc_o[12]
*37 acc_o[13]
*38 acc_o[14]
*39 acc_o[15]
*40 acc_o[16]
*41 acc_o[17]
*42 acc_o[18]
*43 acc_o[19]
*44 acc_o[1]
*45 acc_o[20]
*46 acc_o[21]
*47 acc_o[22]
*48 acc_o[23]
*49 acc_o[24]
*50 acc_o[25]
*51 acc_o[26]
*52 acc_o[27]
*53 acc_o[28]
*54 acc_o[29]
*55 acc_o[2]
*56 acc_o[30]
*57 acc_o[31]
*58 acc_o[3]
*59 acc_o[4]
*60 acc_o[5]
*61 acc_o[6]
*62 acc_o[7]
*63 acc_o[8]
*64 acc_o[9]
*65 clk_i
*66 en_i
*67 nrst_i
*70 _000_
*71 _001_
*72 _002_
*73 _003_
*74 _004_
*75 _005_
*76 _006_
*77 _007_
*78 _008_
*79 _009_
*80 _010_
*81 _011_
*82 _012_
*83 _013_
*84 _014_
*85 _015_
*86 _016_
*87 _017_
*88 _018_
*89 _019_
*90 _020_
*91 _021_
*92 _022_
*93 _023_
*94 _024_
*95 _025_
*96 _026_
*97 _027_
*98 _028_
*99 _029_
*100 _030_
*101 _031_
*102 _032_
*103 _033_
*104 _034_
*105 _035_
*106 _036_
*107 _037_
*108 _038_
*109 _039_
*110 _040_
*111 _041_
*112 _042_
*113 _043_
*114 _044_
*115 _045_
*116 _046_
*117 _047_
*118 _048_
*119 _049_
*120 _050_
*121 _051_
*122 _052_
*123 _053_
*124 _054_
*125 _055_
*126 _056_
*127 _057_
*128 _058_
*129 _059_
*130 _060_
*131 _061_
*132 _062_
*133 _063_
*134 _064_
*135 _065_
*136 _066_
*137 _067_
*138 _068_
*139 _069_
*140 _070_
*141 _071_
*142 _072_
*143 _073_
*144 _074_
*145 _075_
*146 _076_
*147 _077_
*148 _078_
*149 _079_
*150 _080_
*151 _081_
*152 _082_
*153 _083_
*154 _084_
*155 _085_
*156 _086_
*157 _087_
*158 _088_
*159 _089_
*160 _090_
*161 _091_
*162 _092_
*163 _093_
*164 _094_
*165 _095_
*166 _096_
*167 _097_
*168 _098_
*169 _099_
*170 _100_
*171 _101_
*172 _102_
*173 _103_
*174 _104_
*175 _105_
*176 _106_
*177 _107_
*178 _108_
*179 _109_
*180 _110_
*181 _111_
*182 _112_
*183 _113_
*184 _114_
*185 _115_
*186 _116_
*187 _117_
*188 _118_
*189 _119_
*190 _120_
*191 _121_
*192 _122_
*193 _123_
*194 _124_
*195 _125_
*196 _126_
*197 _127_
*198 _128_
*199 _129_
*200 _130_
*201 _131_
*202 _132_
*203 _133_
*204 _134_
*205 _135_
*206 _136_
*207 _137_
*208 _138_
*209 _139_
*210 _140_
*211 _141_
*212 _142_
*213 _143_
*214 _144_
*215 _145_
*216 _146_
*217 _147_
*218 _148_
*219 _149_
*220 _150_
*221 _151_
*222 _152_
*223 _153_
*224 _154_
*225 _155_
*226 _156_
*227 _157_
*228 _158_
*229 _159_
*230 _160_
*231 _161_
*232 _162_
*233 _163_
*234 _164_
*235 _165_
*236 _166_
*237 _167_
*238 _168_
*239 _169_
*240 _170_
*241 _171_
*242 _172_
*243 _173_
*244 _174_
*245 _175_
*246 _176_
*247 _177_
*248 _178_
*249 _179_
*250 _180_
*251 _181_
*252 _182_
*253 _183_
*254 _184_
*255 _185_
*256 _186_
*257 _187_
*258 _188_
*259 _189_
*260 _190_
*261 _191_
*262 _192_
*263 _193_
*264 _194_
*265 _195_
*266 _196_
*267 _197_
*268 _198_
*269 _199_
*270 _200_
*271 _201_
*272 _202_
*273 _203_
*274 _204_
*275 _205_
*276 _206_
*277 _207_
*278 _208_
*279 _209_
*280 _210_
*281 _211_
*282 _212_
*283 _213_
*284 _214_
*285 _215_
*286 _216_
*287 _217_
*288 _218_
*289 _219_
*290 _220_
*291 _221_
*292 _222_
*293 _223_
*294 _224_
*295 _225_
*296 _226_
*297 _227_
*298 _228_
*299 _229_
*300 _230_
*301 _231_
*302 _232_
*303 _233_
*304 _234_
*305 _235_
*306 clknet_0_clk_i
*307 clknet_2_0__leaf_clk_i
*308 clknet_2_1__leaf_clk_i
*309 clknet_2_2__leaf_clk_i
*310 clknet_2_3__leaf_clk_i
*311 net1
*312 net10
*313 net100
*314 net101
*315 net102
*316 net103
*317 net104
*318 net105
*319 net106
*320 net107
*321 net108
*322 net109
*323 net11
*324 net110
*325 net111
*326 net112
*327 net113
*328 net114
*329 net115
*330 net116
*331 net117
*332 net118
*333 net12
*334 net13
*335 net14
*336 net15
*337 net16
*338 net17
*339 net18
*340 net19
*341 net2
*342 net20
*343 net21
*344 net22
*345 net23
*346 net24
*347 net25
*348 net26
*349 net27
*350 net28
*351 net29
*352 net3
*353 net30
*354 net31
*355 net32
*356 net33
*357 net34
*358 net35
*359 net36
*360 net37
*361 net38
*362 net39
*363 net4
*364 net40
*365 net41
*366 net42
*367 net43
*368 net44
*369 net45
*370 net46
*371 net47
*372 net48
*373 net49
*374 net5
*375 net50
*376 net51
*377 net52
*378 net53
*379 net54
*380 net55
*381 net56
*382 net57
*383 net58
*384 net59
*385 net6
*386 net60
*387 net61
*388 net62
*389 net63
*390 net64
*391 net65
*392 net66
*393 net67
*394 net68
*395 net69
*396 net7
*397 net70
*398 net71
*399 net72
*400 net73
*401 net74
*402 net75
*403 net76
*404 net77
*405 net78
*406 net79
*407 net8
*408 net80
*409 net81
*410 net82
*411 net83
*412 net84
*413 net85
*414 net86
*415 net87
*416 net88
*417 net89
*418 net9
*419 net90
*420 net91
*421 net92
*422 net93
*423 net94
*424 net95
*425 net96
*426 net97
*427 net98
*428 net99
*429 ANTENNA__236__A1
*430 ANTENNA__239__B1
*431 ANTENNA__240__B2
*432 ANTENNA__241__A
*433 ANTENNA__242__A
*434 ANTENNA__244__A1
*435 ANTENNA__247__A
*436 ANTENNA__248__A
*437 ANTENNA__252__A1
*438 ANTENNA__258__A
*439 ANTENNA__259__A
*440 ANTENNA__265__B
*441 ANTENNA__287__A
*442 ANTENNA__288__A
*443 ANTENNA__293__A2
*444 ANTENNA__294__A
*445 ANTENNA__295__A
*446 ANTENNA__301__A
*447 ANTENNA__302__A
*448 ANTENNA__307__A
*449 ANTENNA__308__A
*450 ANTENNA__318__A
*451 ANTENNA__319__A
*452 ANTENNA__322__B1
*453 ANTENNA__323__A2
*454 ANTENNA__325__B
*455 ANTENNA__341__A
*456 ANTENNA__341__B
*457 ANTENNA__344__A
*458 ANTENNA__345__A2
*459 ANTENNA__348__S
*460 ANTENNA__352__S
*461 ANTENNA__354__S
*462 ANTENNA__357__S
*463 ANTENNA__358__B
*464 ANTENNA__360__A1
*465 ANTENNA__361__A
*466 ANTENNA__362__A
*467 ANTENNA__363__A
*468 ANTENNA__365__A
*469 ANTENNA__366__A
*470 ANTENNA__368__A
*471 ANTENNA__369__A
*472 ANTENNA__370__A
*473 ANTENNA__373__A
*474 ANTENNA__375__A
*475 ANTENNA__376__A
*476 ANTENNA__377__A
*477 ANTENNA__378__A
*478 ANTENNA__379__A
*479 ANTENNA__380__A
*480 ANTENNA__381__A
*481 ANTENNA__385__A
*482 ANTENNA__392__S
*483 ANTENNA__398__A
*484 ANTENNA__399__A
*485 ANTENNA__402__B1
*486 ANTENNA__403__A2
*487 ANTENNA__404__A
*488 ANTENNA__407__S
*489 ANTENNA__408__A
*490 ANTENNA__409__A1
*491 ANTENNA__409__B1
*492 ANTENNA__410__A1
*493 ANTENNA__413__B1
*494 ANTENNA__414__B2
*495 ANTENNA__415__A
*496 ANTENNA__416__A
*497 ANTENNA__418__A1
*498 ANTENNA__420__S
*499 ANTENNA__421__A
*500 ANTENNA__422__A
*501 ANTENNA__425__A
*502 ANTENNA__431__A
*503 ANTENNA__432__B2
*504 ANTENNA__434__A
*505 ANTENNA__435__A
*506 ANTENNA__440__A1
*507 ANTENNA__441__A
*508 ANTENNA__444__B1
*509 ANTENNA__445__A2
*510 ANTENNA__446__A
*511 ANTENNA__447__A
*512 ANTENNA__449__A1
*513 ANTENNA__456__A1
*514 ANTENNA__456__B1
*515 ANTENNA__460__A
*516 ANTENNA__461__A
*517 ANTENNA__465__A2
*518 ANTENNA__466__A
*519 ANTENNA__469__S
*520 ANTENNA__470__A
*521 ANTENNA__471__A1
*522 ANTENNA__471__B1
*523 ANTENNA__472__RESET_B
*524 ANTENNA__473__RESET_B
*525 ANTENNA__474__RESET_B
*526 ANTENNA__475__RESET_B
*527 ANTENNA__476__RESET_B
*528 ANTENNA__477__RESET_B
*529 ANTENNA__478__RESET_B
*530 ANTENNA__492__RESET_B
*531 ANTENNA__494__RESET_B
*532 ANTENNA__497__RESET_B
*533 ANTENNA__498__RESET_B
*534 ANTENNA__499__RESET_B
*535 ANTENNA__500__RESET_B
*536 ANTENNA__501__RESET_B
*537 ANTENNA__502__RESET_B
*538 ANTENNA__503__RESET_B
*539 ANTENNA_fanout67_A
*540 ANTENNA_fanout68_A
*541 ANTENNA_fanout69_A
*542 ANTENNA_fanout70_A
*543 ANTENNA_hold24_A
*544 ANTENNA_hold26_A
*545 ANTENNA_hold30_A
*546 ANTENNA_hold31_A
*547 ANTENNA_hold34_A
*548 ANTENNA_hold35_A
*549 ANTENNA_hold38_A
*550 ANTENNA_hold40_A
*551 ANTENNA_hold43_A
*552 ANTENNA_hold46_A
*553 ANTENNA_hold48_A
*554 ANTENNA_output47_A
*555 ANTENNA_output48_A
*556 ANTENNA_output49_A
*557 ANTENNA_output50_A
*558 ANTENNA_output51_A
*559 ANTENNA_output52_A
*560 ANTENNA_output54_A
*561 ANTENNA_output55_A
*562 ANTENNA_output56_A
*563 ANTENNA_output58_A
*564 ANTENNA_output59_A
*565 FILLER_0_0_104
*566 FILLER_0_0_113
*567 FILLER_0_0_120
*568 FILLER_0_0_136
*569 FILLER_0_0_141
*570 FILLER_0_0_147
*571 FILLER_0_0_152
*572 FILLER_0_0_169
*573 FILLER_0_0_177
*574 FILLER_0_0_184
*575 FILLER_0_0_207
*576 FILLER_0_0_211
*577 FILLER_0_0_216
*578 FILLER_0_0_225
*579 FILLER_0_0_232
*580 FILLER_0_0_24
*581 FILLER_0_0_248
*582 FILLER_0_0_253
*583 FILLER_0_0_259
*584 FILLER_0_0_264
*585 FILLER_0_0_281
*586 FILLER_0_0_289
*587 FILLER_0_0_29
*588 FILLER_0_0_296
*589 FILLER_0_0_3
*590 FILLER_0_0_313
*591 FILLER_0_0_321
*592 FILLER_0_0_334
*593 FILLER_0_0_337
*594 FILLER_0_0_343
*595 FILLER_0_0_35
*596 FILLER_0_0_355
*597 FILLER_0_0_359
*598 FILLER_0_0_363
*599 FILLER_0_0_365
*600 FILLER_0_0_371
*601 FILLER_0_0_375
*602 FILLER_0_0_387
*603 FILLER_0_0_391
*604 FILLER_0_0_393
*605 FILLER_0_0_40
*606 FILLER_0_0_401
*607 FILLER_0_0_407
*608 FILLER_0_0_419
*609 FILLER_0_0_431
*610 FILLER_0_0_435
*611 FILLER_0_0_439
*612 FILLER_0_0_447
*613 FILLER_0_0_449
*614 FILLER_0_0_462
*615 FILLER_0_0_471
*616 FILLER_0_0_475
*617 FILLER_0_0_477
*618 FILLER_0_0_483
*619 FILLER_0_0_494
*620 FILLER_0_0_503
*621 FILLER_0_0_505
*622 FILLER_0_0_57
*623 FILLER_0_0_65
*624 FILLER_0_0_72
*625 FILLER_0_0_8
*626 FILLER_0_0_89
*627 FILLER_0_0_97
*628 FILLER_0_100_109
*629 FILLER_0_100_121
*630 FILLER_0_100_133
*631 FILLER_0_100_139
*632 FILLER_0_100_141
*633 FILLER_0_100_15
*634 FILLER_0_100_153
*635 FILLER_0_100_165
*636 FILLER_0_100_177
*637 FILLER_0_100_189
*638 FILLER_0_100_195
*639 FILLER_0_100_197
*640 FILLER_0_100_209
*641 FILLER_0_100_221
*642 FILLER_0_100_233
*643 FILLER_0_100_245
*644 FILLER_0_100_251
*645 FILLER_0_100_253
*646 FILLER_0_100_265
*647 FILLER_0_100_27
*648 FILLER_0_100_277
*649 FILLER_0_100_289
*650 FILLER_0_100_29
*651 FILLER_0_100_3
*652 FILLER_0_100_301
*653 FILLER_0_100_307
*654 FILLER_0_100_309
*655 FILLER_0_100_321
*656 FILLER_0_100_333
*657 FILLER_0_100_345
*658 FILLER_0_100_357
*659 FILLER_0_100_363
*660 FILLER_0_100_365
*661 FILLER_0_100_377
*662 FILLER_0_100_389
*663 FILLER_0_100_401
*664 FILLER_0_100_41
*665 FILLER_0_100_413
*666 FILLER_0_100_419
*667 FILLER_0_100_421
*668 FILLER_0_100_433
*669 FILLER_0_100_445
*670 FILLER_0_100_457
*671 FILLER_0_100_469
*672 FILLER_0_100_475
*673 FILLER_0_100_477
*674 FILLER_0_100_489
*675 FILLER_0_100_501
*676 FILLER_0_100_513
*677 FILLER_0_100_53
*678 FILLER_0_100_65
*679 FILLER_0_100_77
*680 FILLER_0_100_83
*681 FILLER_0_100_85
*682 FILLER_0_100_97
*683 FILLER_0_101_109
*684 FILLER_0_101_113
*685 FILLER_0_101_125
*686 FILLER_0_101_137
*687 FILLER_0_101_141
*688 FILLER_0_101_15
*689 FILLER_0_101_153
*690 FILLER_0_101_165
*691 FILLER_0_101_169
*692 FILLER_0_101_181
*693 FILLER_0_101_193
*694 FILLER_0_101_197
*695 FILLER_0_101_209
*696 FILLER_0_101_221
*697 FILLER_0_101_225
*698 FILLER_0_101_237
*699 FILLER_0_101_249
*700 FILLER_0_101_253
*701 FILLER_0_101_265
*702 FILLER_0_101_27
*703 FILLER_0_101_277
*704 FILLER_0_101_281
*705 FILLER_0_101_29
*706 FILLER_0_101_293
*707 FILLER_0_101_3
*708 FILLER_0_101_305
*709 FILLER_0_101_309
*710 FILLER_0_101_321
*711 FILLER_0_101_333
*712 FILLER_0_101_337
*713 FILLER_0_101_349
*714 FILLER_0_101_361
*715 FILLER_0_101_365
*716 FILLER_0_101_377
*717 FILLER_0_101_389
*718 FILLER_0_101_393
*719 FILLER_0_101_399
*720 FILLER_0_101_41
*721 FILLER_0_101_411
*722 FILLER_0_101_419
*723 FILLER_0_101_421
*724 FILLER_0_101_433
*725 FILLER_0_101_445
*726 FILLER_0_101_449
*727 FILLER_0_101_461
*728 FILLER_0_101_473
*729 FILLER_0_101_477
*730 FILLER_0_101_489
*731 FILLER_0_101_501
*732 FILLER_0_101_505
*733 FILLER_0_101_513
*734 FILLER_0_101_53
*735 FILLER_0_101_57
*736 FILLER_0_101_69
*737 FILLER_0_101_81
*738 FILLER_0_101_85
*739 FILLER_0_101_97
*740 FILLER_0_10_109
*741 FILLER_0_10_121
*742 FILLER_0_10_133
*743 FILLER_0_10_139
*744 FILLER_0_10_141
*745 FILLER_0_10_15
*746 FILLER_0_10_153
*747 FILLER_0_10_165
*748 FILLER_0_10_177
*749 FILLER_0_10_189
*750 FILLER_0_10_195
*751 FILLER_0_10_197
*752 FILLER_0_10_209
*753 FILLER_0_10_221
*754 FILLER_0_10_233
*755 FILLER_0_10_245
*756 FILLER_0_10_251
*757 FILLER_0_10_253
*758 FILLER_0_10_265
*759 FILLER_0_10_27
*760 FILLER_0_10_277
*761 FILLER_0_10_289
*762 FILLER_0_10_29
*763 FILLER_0_10_3
*764 FILLER_0_10_301
*765 FILLER_0_10_307
*766 FILLER_0_10_309
*767 FILLER_0_10_321
*768 FILLER_0_10_333
*769 FILLER_0_10_345
*770 FILLER_0_10_357
*771 FILLER_0_10_363
*772 FILLER_0_10_365
*773 FILLER_0_10_377
*774 FILLER_0_10_389
*775 FILLER_0_10_401
*776 FILLER_0_10_41
*777 FILLER_0_10_413
*778 FILLER_0_10_419
*779 FILLER_0_10_421
*780 FILLER_0_10_427
*781 FILLER_0_10_433
*782 FILLER_0_10_446
*783 FILLER_0_10_492
*784 FILLER_0_10_496
*785 FILLER_0_10_53
*786 FILLER_0_10_65
*787 FILLER_0_10_77
*788 FILLER_0_10_83
*789 FILLER_0_10_85
*790 FILLER_0_10_97
*791 FILLER_0_11_105
*792 FILLER_0_11_111
*793 FILLER_0_11_113
*794 FILLER_0_11_125
*795 FILLER_0_11_137
*796 FILLER_0_11_149
*797 FILLER_0_11_15
*798 FILLER_0_11_161
*799 FILLER_0_11_167
*800 FILLER_0_11_169
*801 FILLER_0_11_181
*802 FILLER_0_11_193
*803 FILLER_0_11_205
*804 FILLER_0_11_217
*805 FILLER_0_11_223
*806 FILLER_0_11_225
*807 FILLER_0_11_237
*808 FILLER_0_11_249
*809 FILLER_0_11_261
*810 FILLER_0_11_27
*811 FILLER_0_11_273
*812 FILLER_0_11_279
*813 FILLER_0_11_281
*814 FILLER_0_11_293
*815 FILLER_0_11_3
*816 FILLER_0_11_305
*817 FILLER_0_11_317
*818 FILLER_0_11_329
*819 FILLER_0_11_335
*820 FILLER_0_11_337
*821 FILLER_0_11_349
*822 FILLER_0_11_361
*823 FILLER_0_11_373
*824 FILLER_0_11_385
*825 FILLER_0_11_39
*826 FILLER_0_11_391
*827 FILLER_0_11_393
*828 FILLER_0_11_405
*829 FILLER_0_11_417
*830 FILLER_0_11_429
*831 FILLER_0_11_435
*832 FILLER_0_11_447
*833 FILLER_0_11_449
*834 FILLER_0_11_461
*835 FILLER_0_11_475
*836 FILLER_0_11_479
*837 FILLER_0_11_503
*838 FILLER_0_11_51
*839 FILLER_0_11_513
*840 FILLER_0_11_55
*841 FILLER_0_11_57
*842 FILLER_0_11_69
*843 FILLER_0_11_81
*844 FILLER_0_11_93
*845 FILLER_0_12_109
*846 FILLER_0_12_121
*847 FILLER_0_12_133
*848 FILLER_0_12_139
*849 FILLER_0_12_141
*850 FILLER_0_12_15
*851 FILLER_0_12_153
*852 FILLER_0_12_165
*853 FILLER_0_12_177
*854 FILLER_0_12_189
*855 FILLER_0_12_195
*856 FILLER_0_12_197
*857 FILLER_0_12_209
*858 FILLER_0_12_221
*859 FILLER_0_12_233
*860 FILLER_0_12_245
*861 FILLER_0_12_251
*862 FILLER_0_12_253
*863 FILLER_0_12_265
*864 FILLER_0_12_27
*865 FILLER_0_12_277
*866 FILLER_0_12_289
*867 FILLER_0_12_29
*868 FILLER_0_12_3
*869 FILLER_0_12_301
*870 FILLER_0_12_307
*871 FILLER_0_12_309
*872 FILLER_0_12_321
*873 FILLER_0_12_333
*874 FILLER_0_12_345
*875 FILLER_0_12_357
*876 FILLER_0_12_363
*877 FILLER_0_12_365
*878 FILLER_0_12_377
*879 FILLER_0_12_389
*880 FILLER_0_12_401
*881 FILLER_0_12_41
*882 FILLER_0_12_413
*883 FILLER_0_12_419
*884 FILLER_0_12_421
*885 FILLER_0_12_433
*886 FILLER_0_12_445
*887 FILLER_0_12_457
*888 FILLER_0_12_469
*889 FILLER_0_12_475
*890 FILLER_0_12_480
*891 FILLER_0_12_493
*892 FILLER_0_12_53
*893 FILLER_0_12_65
*894 FILLER_0_12_77
*895 FILLER_0_12_83
*896 FILLER_0_12_85
*897 FILLER_0_12_97
*898 FILLER_0_13_105
*899 FILLER_0_13_111
*900 FILLER_0_13_113
*901 FILLER_0_13_125
*902 FILLER_0_13_137
*903 FILLER_0_13_149
*904 FILLER_0_13_15
*905 FILLER_0_13_161
*906 FILLER_0_13_167
*907 FILLER_0_13_169
*908 FILLER_0_13_181
*909 FILLER_0_13_193
*910 FILLER_0_13_205
*911 FILLER_0_13_217
*912 FILLER_0_13_223
*913 FILLER_0_13_225
*914 FILLER_0_13_237
*915 FILLER_0_13_249
*916 FILLER_0_13_261
*917 FILLER_0_13_27
*918 FILLER_0_13_273
*919 FILLER_0_13_279
*920 FILLER_0_13_281
*921 FILLER_0_13_293
*922 FILLER_0_13_3
*923 FILLER_0_13_305
*924 FILLER_0_13_317
*925 FILLER_0_13_329
*926 FILLER_0_13_335
*927 FILLER_0_13_337
*928 FILLER_0_13_349
*929 FILLER_0_13_361
*930 FILLER_0_13_373
*931 FILLER_0_13_385
*932 FILLER_0_13_39
*933 FILLER_0_13_391
*934 FILLER_0_13_393
*935 FILLER_0_13_405
*936 FILLER_0_13_417
*937 FILLER_0_13_429
*938 FILLER_0_13_437
*939 FILLER_0_13_441
*940 FILLER_0_13_447
*941 FILLER_0_13_449
*942 FILLER_0_13_461
*943 FILLER_0_13_469
*944 FILLER_0_13_477
*945 FILLER_0_13_491
*946 FILLER_0_13_51
*947 FILLER_0_13_513
*948 FILLER_0_13_55
*949 FILLER_0_13_57
*950 FILLER_0_13_69
*951 FILLER_0_13_81
*952 FILLER_0_13_93
*953 FILLER_0_14_109
*954 FILLER_0_14_121
*955 FILLER_0_14_133
*956 FILLER_0_14_139
*957 FILLER_0_14_141
*958 FILLER_0_14_15
*959 FILLER_0_14_153
*960 FILLER_0_14_165
*961 FILLER_0_14_177
*962 FILLER_0_14_189
*963 FILLER_0_14_195
*964 FILLER_0_14_197
*965 FILLER_0_14_209
*966 FILLER_0_14_221
*967 FILLER_0_14_233
*968 FILLER_0_14_245
*969 FILLER_0_14_251
*970 FILLER_0_14_253
*971 FILLER_0_14_265
*972 FILLER_0_14_27
*973 FILLER_0_14_277
*974 FILLER_0_14_289
*975 FILLER_0_14_29
*976 FILLER_0_14_3
*977 FILLER_0_14_301
*978 FILLER_0_14_307
*979 FILLER_0_14_309
*980 FILLER_0_14_321
*981 FILLER_0_14_333
*982 FILLER_0_14_345
*983 FILLER_0_14_357
*984 FILLER_0_14_363
*985 FILLER_0_14_365
*986 FILLER_0_14_377
*987 FILLER_0_14_389
*988 FILLER_0_14_401
*989 FILLER_0_14_41
*990 FILLER_0_14_413
*991 FILLER_0_14_419
*992 FILLER_0_14_421
*993 FILLER_0_14_431
*994 FILLER_0_14_435
*995 FILLER_0_14_440
*996 FILLER_0_14_462
*997 FILLER_0_14_472
*998 FILLER_0_14_484
*999 FILLER_0_14_488
*1000 FILLER_0_14_53
*1001 FILLER_0_14_65
*1002 FILLER_0_14_77
*1003 FILLER_0_14_83
*1004 FILLER_0_14_85
*1005 FILLER_0_14_97
*1006 FILLER_0_15_105
*1007 FILLER_0_15_111
*1008 FILLER_0_15_113
*1009 FILLER_0_15_125
*1010 FILLER_0_15_137
*1011 FILLER_0_15_149
*1012 FILLER_0_15_15
*1013 FILLER_0_15_161
*1014 FILLER_0_15_167
*1015 FILLER_0_15_169
*1016 FILLER_0_15_181
*1017 FILLER_0_15_193
*1018 FILLER_0_15_205
*1019 FILLER_0_15_217
*1020 FILLER_0_15_223
*1021 FILLER_0_15_225
*1022 FILLER_0_15_237
*1023 FILLER_0_15_249
*1024 FILLER_0_15_261
*1025 FILLER_0_15_27
*1026 FILLER_0_15_273
*1027 FILLER_0_15_279
*1028 FILLER_0_15_281
*1029 FILLER_0_15_293
*1030 FILLER_0_15_3
*1031 FILLER_0_15_305
*1032 FILLER_0_15_317
*1033 FILLER_0_15_329
*1034 FILLER_0_15_335
*1035 FILLER_0_15_337
*1036 FILLER_0_15_349
*1037 FILLER_0_15_361
*1038 FILLER_0_15_373
*1039 FILLER_0_15_385
*1040 FILLER_0_15_39
*1041 FILLER_0_15_391
*1042 FILLER_0_15_393
*1043 FILLER_0_15_405
*1044 FILLER_0_15_417
*1045 FILLER_0_15_423
*1046 FILLER_0_15_447
*1047 FILLER_0_15_498
*1048 FILLER_0_15_502
*1049 FILLER_0_15_51
*1050 FILLER_0_15_513
*1051 FILLER_0_15_55
*1052 FILLER_0_15_57
*1053 FILLER_0_15_69
*1054 FILLER_0_15_81
*1055 FILLER_0_15_93
*1056 FILLER_0_16_109
*1057 FILLER_0_16_121
*1058 FILLER_0_16_133
*1059 FILLER_0_16_139
*1060 FILLER_0_16_141
*1061 FILLER_0_16_15
*1062 FILLER_0_16_153
*1063 FILLER_0_16_165
*1064 FILLER_0_16_177
*1065 FILLER_0_16_189
*1066 FILLER_0_16_195
*1067 FILLER_0_16_197
*1068 FILLER_0_16_209
*1069 FILLER_0_16_221
*1070 FILLER_0_16_233
*1071 FILLER_0_16_245
*1072 FILLER_0_16_251
*1073 FILLER_0_16_253
*1074 FILLER_0_16_265
*1075 FILLER_0_16_27
*1076 FILLER_0_16_277
*1077 FILLER_0_16_289
*1078 FILLER_0_16_29
*1079 FILLER_0_16_3
*1080 FILLER_0_16_301
*1081 FILLER_0_16_307
*1082 FILLER_0_16_309
*1083 FILLER_0_16_321
*1084 FILLER_0_16_333
*1085 FILLER_0_16_345
*1086 FILLER_0_16_357
*1087 FILLER_0_16_363
*1088 FILLER_0_16_365
*1089 FILLER_0_16_377
*1090 FILLER_0_16_389
*1091 FILLER_0_16_401
*1092 FILLER_0_16_41
*1093 FILLER_0_16_413
*1094 FILLER_0_16_419
*1095 FILLER_0_16_421
*1096 FILLER_0_16_425
*1097 FILLER_0_16_469
*1098 FILLER_0_16_473
*1099 FILLER_0_16_494
*1100 FILLER_0_16_53
*1101 FILLER_0_16_65
*1102 FILLER_0_16_77
*1103 FILLER_0_16_83
*1104 FILLER_0_16_85
*1105 FILLER_0_16_97
*1106 FILLER_0_17_105
*1107 FILLER_0_17_111
*1108 FILLER_0_17_113
*1109 FILLER_0_17_125
*1110 FILLER_0_17_137
*1111 FILLER_0_17_149
*1112 FILLER_0_17_15
*1113 FILLER_0_17_161
*1114 FILLER_0_17_167
*1115 FILLER_0_17_169
*1116 FILLER_0_17_181
*1117 FILLER_0_17_193
*1118 FILLER_0_17_205
*1119 FILLER_0_17_217
*1120 FILLER_0_17_223
*1121 FILLER_0_17_225
*1122 FILLER_0_17_237
*1123 FILLER_0_17_249
*1124 FILLER_0_17_261
*1125 FILLER_0_17_27
*1126 FILLER_0_17_273
*1127 FILLER_0_17_279
*1128 FILLER_0_17_281
*1129 FILLER_0_17_293
*1130 FILLER_0_17_3
*1131 FILLER_0_17_305
*1132 FILLER_0_17_317
*1133 FILLER_0_17_329
*1134 FILLER_0_17_335
*1135 FILLER_0_17_337
*1136 FILLER_0_17_349
*1137 FILLER_0_17_361
*1138 FILLER_0_17_373
*1139 FILLER_0_17_385
*1140 FILLER_0_17_39
*1141 FILLER_0_17_391
*1142 FILLER_0_17_393
*1143 FILLER_0_17_405
*1144 FILLER_0_17_417
*1145 FILLER_0_17_429
*1146 FILLER_0_17_433
*1147 FILLER_0_17_436
*1148 FILLER_0_17_449
*1149 FILLER_0_17_472
*1150 FILLER_0_17_51
*1151 FILLER_0_17_514
*1152 FILLER_0_17_55
*1153 FILLER_0_17_57
*1154 FILLER_0_17_69
*1155 FILLER_0_17_81
*1156 FILLER_0_17_93
*1157 FILLER_0_18_109
*1158 FILLER_0_18_121
*1159 FILLER_0_18_133
*1160 FILLER_0_18_139
*1161 FILLER_0_18_141
*1162 FILLER_0_18_15
*1163 FILLER_0_18_153
*1164 FILLER_0_18_165
*1165 FILLER_0_18_177
*1166 FILLER_0_18_189
*1167 FILLER_0_18_195
*1168 FILLER_0_18_197
*1169 FILLER_0_18_209
*1170 FILLER_0_18_221
*1171 FILLER_0_18_233
*1172 FILLER_0_18_245
*1173 FILLER_0_18_251
*1174 FILLER_0_18_253
*1175 FILLER_0_18_265
*1176 FILLER_0_18_27
*1177 FILLER_0_18_277
*1178 FILLER_0_18_289
*1179 FILLER_0_18_29
*1180 FILLER_0_18_3
*1181 FILLER_0_18_301
*1182 FILLER_0_18_307
*1183 FILLER_0_18_309
*1184 FILLER_0_18_321
*1185 FILLER_0_18_333
*1186 FILLER_0_18_345
*1187 FILLER_0_18_357
*1188 FILLER_0_18_363
*1189 FILLER_0_18_365
*1190 FILLER_0_18_377
*1191 FILLER_0_18_389
*1192 FILLER_0_18_401
*1193 FILLER_0_18_41
*1194 FILLER_0_18_413
*1195 FILLER_0_18_419
*1196 FILLER_0_18_421
*1197 FILLER_0_18_433
*1198 FILLER_0_18_448
*1199 FILLER_0_18_452
*1200 FILLER_0_18_456
*1201 FILLER_0_18_462
*1202 FILLER_0_18_466
*1203 FILLER_0_18_477
*1204 FILLER_0_18_488
*1205 FILLER_0_18_53
*1206 FILLER_0_18_65
*1207 FILLER_0_18_77
*1208 FILLER_0_18_83
*1209 FILLER_0_18_85
*1210 FILLER_0_18_97
*1211 FILLER_0_19_105
*1212 FILLER_0_19_111
*1213 FILLER_0_19_113
*1214 FILLER_0_19_125
*1215 FILLER_0_19_137
*1216 FILLER_0_19_149
*1217 FILLER_0_19_15
*1218 FILLER_0_19_161
*1219 FILLER_0_19_167
*1220 FILLER_0_19_169
*1221 FILLER_0_19_181
*1222 FILLER_0_19_193
*1223 FILLER_0_19_205
*1224 FILLER_0_19_217
*1225 FILLER_0_19_223
*1226 FILLER_0_19_225
*1227 FILLER_0_19_237
*1228 FILLER_0_19_249
*1229 FILLER_0_19_261
*1230 FILLER_0_19_27
*1231 FILLER_0_19_273
*1232 FILLER_0_19_279
*1233 FILLER_0_19_281
*1234 FILLER_0_19_293
*1235 FILLER_0_19_3
*1236 FILLER_0_19_305
*1237 FILLER_0_19_317
*1238 FILLER_0_19_329
*1239 FILLER_0_19_335
*1240 FILLER_0_19_337
*1241 FILLER_0_19_349
*1242 FILLER_0_19_361
*1243 FILLER_0_19_373
*1244 FILLER_0_19_385
*1245 FILLER_0_19_39
*1246 FILLER_0_19_391
*1247 FILLER_0_19_393
*1248 FILLER_0_19_405
*1249 FILLER_0_19_411
*1250 FILLER_0_19_414
*1251 FILLER_0_19_421
*1252 FILLER_0_19_425
*1253 FILLER_0_19_430
*1254 FILLER_0_19_444
*1255 FILLER_0_19_449
*1256 FILLER_0_19_466
*1257 FILLER_0_19_474
*1258 FILLER_0_19_503
*1259 FILLER_0_19_505
*1260 FILLER_0_19_51
*1261 FILLER_0_19_514
*1262 FILLER_0_19_55
*1263 FILLER_0_19_57
*1264 FILLER_0_19_69
*1265 FILLER_0_19_81
*1266 FILLER_0_19_93
*1267 FILLER_0_1_105
*1268 FILLER_0_1_111
*1269 FILLER_0_1_113
*1270 FILLER_0_1_125
*1271 FILLER_0_1_137
*1272 FILLER_0_1_149
*1273 FILLER_0_1_15
*1274 FILLER_0_1_161
*1275 FILLER_0_1_167
*1276 FILLER_0_1_169
*1277 FILLER_0_1_181
*1278 FILLER_0_1_193
*1279 FILLER_0_1_205
*1280 FILLER_0_1_217
*1281 FILLER_0_1_223
*1282 FILLER_0_1_225
*1283 FILLER_0_1_237
*1284 FILLER_0_1_249
*1285 FILLER_0_1_261
*1286 FILLER_0_1_27
*1287 FILLER_0_1_273
*1288 FILLER_0_1_279
*1289 FILLER_0_1_281
*1290 FILLER_0_1_293
*1291 FILLER_0_1_3
*1292 FILLER_0_1_305
*1293 FILLER_0_1_317
*1294 FILLER_0_1_329
*1295 FILLER_0_1_335
*1296 FILLER_0_1_337
*1297 FILLER_0_1_349
*1298 FILLER_0_1_361
*1299 FILLER_0_1_373
*1300 FILLER_0_1_385
*1301 FILLER_0_1_39
*1302 FILLER_0_1_391
*1303 FILLER_0_1_393
*1304 FILLER_0_1_405
*1305 FILLER_0_1_417
*1306 FILLER_0_1_429
*1307 FILLER_0_1_441
*1308 FILLER_0_1_447
*1309 FILLER_0_1_449
*1310 FILLER_0_1_461
*1311 FILLER_0_1_473
*1312 FILLER_0_1_485
*1313 FILLER_0_1_497
*1314 FILLER_0_1_503
*1315 FILLER_0_1_505
*1316 FILLER_0_1_51
*1317 FILLER_0_1_513
*1318 FILLER_0_1_55
*1319 FILLER_0_1_57
*1320 FILLER_0_1_69
*1321 FILLER_0_1_81
*1322 FILLER_0_1_93
*1323 FILLER_0_20_109
*1324 FILLER_0_20_121
*1325 FILLER_0_20_133
*1326 FILLER_0_20_139
*1327 FILLER_0_20_141
*1328 FILLER_0_20_15
*1329 FILLER_0_20_153
*1330 FILLER_0_20_165
*1331 FILLER_0_20_177
*1332 FILLER_0_20_189
*1333 FILLER_0_20_195
*1334 FILLER_0_20_197
*1335 FILLER_0_20_209
*1336 FILLER_0_20_221
*1337 FILLER_0_20_233
*1338 FILLER_0_20_245
*1339 FILLER_0_20_251
*1340 FILLER_0_20_253
*1341 FILLER_0_20_265
*1342 FILLER_0_20_27
*1343 FILLER_0_20_277
*1344 FILLER_0_20_289
*1345 FILLER_0_20_29
*1346 FILLER_0_20_3
*1347 FILLER_0_20_301
*1348 FILLER_0_20_307
*1349 FILLER_0_20_309
*1350 FILLER_0_20_321
*1351 FILLER_0_20_333
*1352 FILLER_0_20_345
*1353 FILLER_0_20_357
*1354 FILLER_0_20_363
*1355 FILLER_0_20_365
*1356 FILLER_0_20_377
*1357 FILLER_0_20_389
*1358 FILLER_0_20_401
*1359 FILLER_0_20_41
*1360 FILLER_0_20_419
*1361 FILLER_0_20_440
*1362 FILLER_0_20_444
*1363 FILLER_0_20_459
*1364 FILLER_0_20_471
*1365 FILLER_0_20_477
*1366 FILLER_0_20_481
*1367 FILLER_0_20_515
*1368 FILLER_0_20_53
*1369 FILLER_0_20_65
*1370 FILLER_0_20_77
*1371 FILLER_0_20_83
*1372 FILLER_0_20_85
*1373 FILLER_0_20_97
*1374 FILLER_0_21_105
*1375 FILLER_0_21_111
*1376 FILLER_0_21_113
*1377 FILLER_0_21_125
*1378 FILLER_0_21_137
*1379 FILLER_0_21_149
*1380 FILLER_0_21_15
*1381 FILLER_0_21_161
*1382 FILLER_0_21_167
*1383 FILLER_0_21_169
*1384 FILLER_0_21_181
*1385 FILLER_0_21_193
*1386 FILLER_0_21_205
*1387 FILLER_0_21_217
*1388 FILLER_0_21_223
*1389 FILLER_0_21_225
*1390 FILLER_0_21_237
*1391 FILLER_0_21_249
*1392 FILLER_0_21_261
*1393 FILLER_0_21_27
*1394 FILLER_0_21_273
*1395 FILLER_0_21_279
*1396 FILLER_0_21_281
*1397 FILLER_0_21_293
*1398 FILLER_0_21_3
*1399 FILLER_0_21_305
*1400 FILLER_0_21_317
*1401 FILLER_0_21_329
*1402 FILLER_0_21_335
*1403 FILLER_0_21_337
*1404 FILLER_0_21_349
*1405 FILLER_0_21_361
*1406 FILLER_0_21_373
*1407 FILLER_0_21_385
*1408 FILLER_0_21_39
*1409 FILLER_0_21_391
*1410 FILLER_0_21_393
*1411 FILLER_0_21_439
*1412 FILLER_0_21_443
*1413 FILLER_0_21_447
*1414 FILLER_0_21_449
*1415 FILLER_0_21_453
*1416 FILLER_0_21_461
*1417 FILLER_0_21_464
*1418 FILLER_0_21_476
*1419 FILLER_0_21_480
*1420 FILLER_0_21_483
*1421 FILLER_0_21_495
*1422 FILLER_0_21_501
*1423 FILLER_0_21_505
*1424 FILLER_0_21_51
*1425 FILLER_0_21_55
*1426 FILLER_0_21_57
*1427 FILLER_0_21_69
*1428 FILLER_0_21_81
*1429 FILLER_0_21_93
*1430 FILLER_0_22_109
*1431 FILLER_0_22_121
*1432 FILLER_0_22_133
*1433 FILLER_0_22_139
*1434 FILLER_0_22_141
*1435 FILLER_0_22_15
*1436 FILLER_0_22_153
*1437 FILLER_0_22_165
*1438 FILLER_0_22_177
*1439 FILLER_0_22_189
*1440 FILLER_0_22_195
*1441 FILLER_0_22_197
*1442 FILLER_0_22_209
*1443 FILLER_0_22_221
*1444 FILLER_0_22_233
*1445 FILLER_0_22_245
*1446 FILLER_0_22_251
*1447 FILLER_0_22_253
*1448 FILLER_0_22_265
*1449 FILLER_0_22_27
*1450 FILLER_0_22_277
*1451 FILLER_0_22_289
*1452 FILLER_0_22_29
*1453 FILLER_0_22_3
*1454 FILLER_0_22_301
*1455 FILLER_0_22_307
*1456 FILLER_0_22_309
*1457 FILLER_0_22_321
*1458 FILLER_0_22_333
*1459 FILLER_0_22_345
*1460 FILLER_0_22_357
*1461 FILLER_0_22_363
*1462 FILLER_0_22_365
*1463 FILLER_0_22_377
*1464 FILLER_0_22_389
*1465 FILLER_0_22_397
*1466 FILLER_0_22_41
*1467 FILLER_0_22_435
*1468 FILLER_0_22_448
*1469 FILLER_0_22_469
*1470 FILLER_0_22_473
*1471 FILLER_0_22_477
*1472 FILLER_0_22_481
*1473 FILLER_0_22_515
*1474 FILLER_0_22_53
*1475 FILLER_0_22_65
*1476 FILLER_0_22_77
*1477 FILLER_0_22_83
*1478 FILLER_0_22_85
*1479 FILLER_0_22_97
*1480 FILLER_0_23_105
*1481 FILLER_0_23_111
*1482 FILLER_0_23_113
*1483 FILLER_0_23_125
*1484 FILLER_0_23_137
*1485 FILLER_0_23_149
*1486 FILLER_0_23_15
*1487 FILLER_0_23_161
*1488 FILLER_0_23_167
*1489 FILLER_0_23_169
*1490 FILLER_0_23_181
*1491 FILLER_0_23_193
*1492 FILLER_0_23_205
*1493 FILLER_0_23_217
*1494 FILLER_0_23_223
*1495 FILLER_0_23_225
*1496 FILLER_0_23_237
*1497 FILLER_0_23_249
*1498 FILLER_0_23_261
*1499 FILLER_0_23_27
*1500 FILLER_0_23_273
*1501 FILLER_0_23_279
*1502 FILLER_0_23_281
*1503 FILLER_0_23_293
*1504 FILLER_0_23_3
*1505 FILLER_0_23_305
*1506 FILLER_0_23_317
*1507 FILLER_0_23_329
*1508 FILLER_0_23_335
*1509 FILLER_0_23_337
*1510 FILLER_0_23_349
*1511 FILLER_0_23_361
*1512 FILLER_0_23_373
*1513 FILLER_0_23_385
*1514 FILLER_0_23_39
*1515 FILLER_0_23_391
*1516 FILLER_0_23_393
*1517 FILLER_0_23_413
*1518 FILLER_0_23_417
*1519 FILLER_0_23_444
*1520 FILLER_0_23_449
*1521 FILLER_0_23_460
*1522 FILLER_0_23_475
*1523 FILLER_0_23_492
*1524 FILLER_0_23_51
*1525 FILLER_0_23_514
*1526 FILLER_0_23_55
*1527 FILLER_0_23_57
*1528 FILLER_0_23_69
*1529 FILLER_0_23_81
*1530 FILLER_0_23_93
*1531 FILLER_0_24_109
*1532 FILLER_0_24_121
*1533 FILLER_0_24_133
*1534 FILLER_0_24_139
*1535 FILLER_0_24_141
*1536 FILLER_0_24_15
*1537 FILLER_0_24_153
*1538 FILLER_0_24_165
*1539 FILLER_0_24_177
*1540 FILLER_0_24_189
*1541 FILLER_0_24_195
*1542 FILLER_0_24_197
*1543 FILLER_0_24_209
*1544 FILLER_0_24_221
*1545 FILLER_0_24_233
*1546 FILLER_0_24_245
*1547 FILLER_0_24_251
*1548 FILLER_0_24_253
*1549 FILLER_0_24_265
*1550 FILLER_0_24_27
*1551 FILLER_0_24_277
*1552 FILLER_0_24_289
*1553 FILLER_0_24_29
*1554 FILLER_0_24_3
*1555 FILLER_0_24_301
*1556 FILLER_0_24_307
*1557 FILLER_0_24_309
*1558 FILLER_0_24_321
*1559 FILLER_0_24_333
*1560 FILLER_0_24_345
*1561 FILLER_0_24_357
*1562 FILLER_0_24_363
*1563 FILLER_0_24_365
*1564 FILLER_0_24_377
*1565 FILLER_0_24_389
*1566 FILLER_0_24_401
*1567 FILLER_0_24_41
*1568 FILLER_0_24_413
*1569 FILLER_0_24_419
*1570 FILLER_0_24_421
*1571 FILLER_0_24_429
*1572 FILLER_0_24_441
*1573 FILLER_0_24_447
*1574 FILLER_0_24_469
*1575 FILLER_0_24_473
*1576 FILLER_0_24_498
*1577 FILLER_0_24_53
*1578 FILLER_0_24_65
*1579 FILLER_0_24_77
*1580 FILLER_0_24_83
*1581 FILLER_0_24_85
*1582 FILLER_0_24_97
*1583 FILLER_0_25_105
*1584 FILLER_0_25_111
*1585 FILLER_0_25_113
*1586 FILLER_0_25_125