*SPEF "ieee 1481-1999"
*DESIGN "CF_SRAM_1024x32_wrapper"
*DATE "11:11:11 Fri 11 11, 1111"
*VENDOR "OpenRCX"
*PROGRAM "Parallel Extraction"
*VERSION "1.0"
*DESIGN_FLOW "NAME_SCOPE LOCAL" "PIN_CAP NONE"
*DIVIDER /
*DELIMITER :
*BUS_DELIMITER []
*T_UNIT 1 NS
*C_UNIT 1 PF
*R_UNIT 1 OHM
*L_UNIT 1 HENRY

*NAME_MAP
*1 AD[0]
*2 AD[1]
*3 AD[2]
*4 AD[3]
*5 AD[4]
*6 AD[5]
*7 AD[6]
*8 AD[7]
*9 AD[8]
*10 AD[9]
*11 BEN[0]
*12 BEN[10]
*13 BEN[11]
*14 BEN[12]
*15 BEN[13]
*16 BEN[14]
*17 BEN[15]
*18 BEN[16]
*19 BEN[17]
*20 BEN[18]
*21 BEN[19]
*22 BEN[1]
*23 BEN[20]
*24 BEN[21]
*25 BEN[22]
*26 BEN[23]
*27 BEN[24]
*28 BEN[25]
*29 BEN[26]
*30 BEN[27]
*31 BEN[28]
*32 BEN[29]
*33 BEN[2]
*34 BEN[30]
*35 BEN[31]
*36 BEN[3]
*37 BEN[4]
*38 BEN[5]
*39 BEN[6]
*40 BEN[7]
*41 BEN[8]
*42 BEN[9]
*43 CLKin
*44 DI[0]
*45 DI[10]
*46 DI[11]
*47 DI[12]
*48 DI[13]
*49 DI[14]
*50 DI[15]
*51 DI[16]
*52 DI[17]
*53 DI[18]
*54 DI[19]
*55 DI[1]
*56 DI[20]
*57 DI[21]
*58 DI[22]
*59 DI[23]
*60 DI[24]
*61 DI[25]
*62 DI[26]
*63 DI[27]
*64 DI[28]
*65 DI[29]
*66 DI[2]
*67 DI[30]
*68 DI[31]
*69 DI[3]
*70 DI[4]
*71 DI[5]
*72 DI[6]
*73 DI[7]
*74 DI[8]
*75 DI[9]
*76 DO[0]
*77 DO[10]
*78 DO[11]
*79 DO[12]
*80 DO[13]
*81 DO[14]
*82 DO[15]
*83 DO[16]
*84 DO[17]
*85 DO[18]
*86 DO[19]
*87 DO[1]
*88 DO[20]
*89 DO[21]
*90 DO[22]
*91 DO[23]
*92 DO[24]
*93 DO[25]
*94 DO[26]
*95 DO[27]
*96 DO[28]
*97 DO[29]
*98 DO[2]
*99 DO[30]
*100 DO[31]
*101 DO[3]
*102 DO[4]
*103 DO[5]
*104 DO[6]
*105 DO[7]
*106 DO[8]
*107 DO[9]
*108 EN
*109 R_WB
*110 SM
*111 ScanInCC
*112 ScanInDL
*113 ScanInDR
*114 ScanOutCC
*115 TM
*116 WLBI
*117 WLOFF
*119 vpwrac
*120 vpwrpc
*122 net1
*123 net10
*124 net100
*125 net101
*126 net102
*127 net103
*128 net104
*129 net105
*130 net106
*131 net107
*132 net108
*133 net109
*134 net11
*135 net110
*136 net111
*137 net112
*138 net113
*139 net114
*140 net115
*141 net116
*142 net117
*143 net118
*144 net12
*145 net13
*146 net14
*147 net15
*148 net16
*149 net17
*150 net18
*151 net19
*152 net2
*153 net20
*154 net21
*155 net22
*156 net23
*157 net24
*158 net25
*159 net26
*160 net27
*161 net28
*162 net29
*163 net3
*164 net30
*165 net31
*166 net32
*167 net33
*168 net34
*169 net35
*170 net36
*171 net37
*172 net38
*173 net39
*174 net4
*175 net40
*176 net41
*177 net42
*178 net43
*179 net44
*180 net45
*181 net46
*182 net47
*183 net48
*184 net49
*185 net5
*186 net50
*187 net51
*188 net52
*189 net53
*190 net54
*191 net55
*192 net56
*193 net57
*194 net58
*195 net59
*196 net6
*197 net60
*198 net61
*199 net62
*200 net63
*201 net64
*202 net65
*203 net66
*204 net67
*205 net68
*206 net69
*207 net7
*208 net70
*209 net71
*210 net72
*211 net73
*212 net74
*213 net75
*214 net76
*215 net77
*216 net78
*217 net79
*218 net8
*219 net80
*220 net81
*221 net82
*222 net83
*223 net84
*224 net85
*225 net86
*226 net87
*227 net88
*228 net89
*229 net9
*230 net90
*231 net91
*232 net92
*233 net93
*234 net94
*235 net95
*236 net96
*237 net97
*238 net98
*239 net99
*240 ANTENNA_1
*241 ANTENNA_10
*242 ANTENNA_11
*243 ANTENNA_12
*244 ANTENNA_13
*245 ANTENNA_14
*246 ANTENNA_15
*247 ANTENNA_16
*248 ANTENNA_17
*249 ANTENNA_18
*250 ANTENNA_19
*251 ANTENNA_2
*252 ANTENNA_20
*253 ANTENNA_21
*254 ANTENNA_22
*255 ANTENNA_23
*256 ANTENNA_24
*257 ANTENNA_25
*258 ANTENNA_26
*259 ANTENNA_27
*260 ANTENNA_28
*261 ANTENNA_29
*262 ANTENNA_3
*263 ANTENNA_30
*264 ANTENNA_31
*265 ANTENNA_32
*266 ANTENNA_33
*267 ANTENNA_34
*268 ANTENNA_35
*269 ANTENNA_36
*270 ANTENNA_37
*271 ANTENNA_38
*272 ANTENNA_39
*273 ANTENNA_4
*274 ANTENNA_40
*275 ANTENNA_41
*276 ANTENNA_42
*277 ANTENNA_43
*278 ANTENNA_44
*279 ANTENNA_45
*280 ANTENNA_46
*281 ANTENNA_47
*282 ANTENNA_48
*283 ANTENNA_49
*284 ANTENNA_5
*285 ANTENNA_50
*286 ANTENNA_51
*287 ANTENNA_52
*288 ANTENNA_53
*289 ANTENNA_54
*290 ANTENNA_55
*291 ANTENNA_56
*292 ANTENNA_57
*293 ANTENNA_58
*294 ANTENNA_59
*295 ANTENNA_6
*296 ANTENNA_60
*297 ANTENNA_61
*298 ANTENNA_62
*299 ANTENNA_63
*300 ANTENNA_64
*301 ANTENNA_65
*302 ANTENNA_66
*303 ANTENNA_67
*304 ANTENNA_68
*305 ANTENNA_69
*306 ANTENNA_7
*307 ANTENNA_70
*308 ANTENNA_71
*309 ANTENNA_72
*310 ANTENNA_73
*311 ANTENNA_74
*312 ANTENNA_75
*313 ANTENNA_76
*314 ANTENNA_77
*315 ANTENNA_8
*316 ANTENNA_9
*317 FILLER_0_0_108
*318 FILLER_0_0_113
*319 FILLER_0_0_121
*320 FILLER_0_0_13
*321 FILLER_0_0_133
*322 FILLER_0_0_139
*323 FILLER_0_0_147
*324 FILLER_0_0_159
*325 FILLER_0_0_167
*326 FILLER_0_0_175
*327 FILLER_0_0_187
*328 FILLER_0_0_197
*329 FILLER_0_0_209
*330 FILLER_0_0_221
*331 FILLER_0_0_225
*332 FILLER_0_0_237
*333 FILLER_0_0_246
*334 FILLER_0_0_253
*335 FILLER_0_0_26
*336 FILLER_0_0_271
*337 FILLER_0_0_279
*338 FILLER_0_0_281
*339 FILLER_0_0_289
*340 FILLER_0_0_29
*341 FILLER_0_0_296
*342 FILLER_0_0_309
*343 FILLER_0_0_321
*344 FILLER_0_0_333
*345 FILLER_0_0_337
*346 FILLER_0_0_346
*347 FILLER_0_0_358
*348 FILLER_0_0_37
*349 FILLER_0_0_371
*350 FILLER_0_0_383
*351 FILLER_0_0_391
*352 FILLER_0_0_399
*353 FILLER_0_0_411
*354 FILLER_0_0_419
*355 FILLER_0_0_427
*356 FILLER_0_0_439
*357 FILLER_0_0_446
*358 FILLER_0_0_449
*359 FILLER_0_0_46
*360 FILLER_0_0_461
*361 FILLER_0_0_471
*362 FILLER_0_0_475
*363 FILLER_0_0_477
*364 FILLER_0_0_489
*365 FILLER_0_0_496
*366 FILLER_0_0_505
*367 FILLER_0_0_513
*368 FILLER_0_0_521
*369 FILLER_0_0_529
*370 FILLER_0_0_533
*371 FILLER_0_0_539
*372 FILLER_0_0_54
*373 FILLER_0_0_546
*374 FILLER_0_0_558
*375 FILLER_0_0_561
*376 FILLER_0_0_57
*377 FILLER_0_0_571
*378 FILLER_0_0_583
*379 FILLER_0_0_587
*380 FILLER_0_0_589
*381 FILLER_0_0_596
*382 FILLER_0_0_608
*383 FILLER_0_0_623
*384 FILLER_0_0_635
*385 FILLER_0_0_643
*386 FILLER_0_0_651
*387 FILLER_0_0_663
*388 FILLER_0_0_671
*389 FILLER_0_0_673
*390 FILLER_0_0_685
*391 FILLER_0_0_689
*392 FILLER_0_0_696
*393 FILLER_0_0_701
*394 FILLER_0_0_71
*395 FILLER_0_0_713
*396 FILLER_0_0_721
*397 FILLER_0_0_727
*398 FILLER_0_0_729
*399 FILLER_0_0_737
*400 FILLER_0_0_746
*401 FILLER_0_0_754
*402 FILLER_0_0_757
*403 FILLER_0_0_771
*404 FILLER_0_0_783
*405 FILLER_0_0_785
*406 FILLER_0_0_789
*407 FILLER_0_0_796
*408 FILLER_0_0_800
*409 FILLER_0_0_83
*410 FILLER_0_0_85
*411 FILLER_0_0_89
*412 FILLER_0_0_9
*413 FILLER_0_0_96
*414 FILLER_0_100_703
*415 FILLER_0_100_715
*416 FILLER_0_100_727
*417 FILLER_0_100_729
*418 FILLER_0_100_741
*419 FILLER_0_100_753
*420 FILLER_0_100_765
*421 FILLER_0_100_777
*422 FILLER_0_100_783
*423 FILLER_0_100_785
*424 FILLER_0_100_797
*425 FILLER_0_101_703
*426 FILLER_0_101_715
*427 FILLER_0_101_727
*428 FILLER_0_101_739
*429 FILLER_0_101_751
*430 FILLER_0_101_755
*431 FILLER_0_101_757
*432 FILLER_0_101_769
*433 FILLER_0_101_781
*434 FILLER_0_101_793
*435 FILLER_0_102_703
*436 FILLER_0_102_715
*437 FILLER_0_102_727
*438 FILLER_0_102_729
*439 FILLER_0_102_741
*440 FILLER_0_102_753
*441 FILLER_0_102_765
*442 FILLER_0_102_777
*443 FILLER_0_102_783
*444 FILLER_0_102_785
*445 FILLER_0_102_793
*446 FILLER_0_103_703
*447 FILLER_0_103_715
*448 FILLER_0_103_727
*449 FILLER_0_103_739
*450 FILLER_0_103_751
*451 FILLER_0_103_755
*452 FILLER_0_103_757
*453 FILLER_0_103_769
*454 FILLER_0_103_781
*455 FILLER_0_103_793
*456 FILLER_0_104_703
*457 FILLER_0_104_715
*458 FILLER_0_104_727
*459 FILLER_0_104_729
*460 FILLER_0_104_741
*461 FILLER_0_104_753
*462 FILLER_0_104_765
*463 FILLER_0_104_777
*464 FILLER_0_104_783
*465 FILLER_0_104_785
*466 FILLER_0_104_797
*467 FILLER_0_105_703
*468 FILLER_0_105_715
*469 FILLER_0_105_727
*470 FILLER_0_105_739
*471 FILLER_0_105_751
*472 FILLER_0_105_755
*473 FILLER_0_105_757
*474 FILLER_0_105_769
*475 FILLER_0_105_781
*476 FILLER_0_105_793
*477 FILLER_0_106_703
*478 FILLER_0_106_715
*479 FILLER_0_106_727
*480 FILLER_0_106_729
*481 FILLER_0_106_741
*482 FILLER_0_106_753
*483 FILLER_0_106_765
*484 FILLER_0_106_777
*485 FILLER_0_106_783
*486 FILLER_0_106_785
*487 FILLER_0_106_797
*488 FILLER_0_107_703
*489 FILLER_0_107_715
*490 FILLER_0_107_727
*491 FILLER_0_107_739
*492 FILLER_0_107_751
*493 FILLER_0_107_755
*494 FILLER_0_107_757
*495 FILLER_0_107_769
*496 FILLER_0_107_781
*497 FILLER_0_107_793
*498 FILLER_0_108_703
*499 FILLER_0_108_715
*500 FILLER_0_108_727
*501 FILLER_0_108_729
*502 FILLER_0_108_741
*503 FILLER_0_108_753
*504 FILLER_0_108_765
*505 FILLER_0_108_777
*506 FILLER_0_108_783
*507 FILLER_0_108_785
*508 FILLER_0_108_797
*509 FILLER_0_109_703
*510 FILLER_0_109_715
*511 FILLER_0_109_727
*512 FILLER_0_109_739
*513 FILLER_0_109_751
*514 FILLER_0_109_755
*515 FILLER_0_109_757
*516 FILLER_0_109_769
*517 FILLER_0_109_781
*518 FILLER_0_109_793
*519 FILLER_0_10_703
*520 FILLER_0_10_715
*521 FILLER_0_10_727
*522 FILLER_0_10_729
*523 FILLER_0_10_741
*524 FILLER_0_10_753
*525 FILLER_0_10_765
*526 FILLER_0_10_777
*527 FILLER_0_10_783
*528 FILLER_0_10_785
*529 FILLER_0_10_797
*530 FILLER_0_110_703
*531 FILLER_0_110_715
*532 FILLER_0_110_727
*533 FILLER_0_110_729
*534 FILLER_0_110_741
*535 FILLER_0_110_753
*536 FILLER_0_110_765
*537 FILLER_0_110_777
*538 FILLER_0_110_783
*539 FILLER_0_110_785
*540 FILLER_0_110_797
*541 FILLER_0_111_703
*542 FILLER_0_111_715
*543 FILLER_0_111_727
*544 FILLER_0_111_739
*545 FILLER_0_111_751
*546 FILLER_0_111_755
*547 FILLER_0_111_757
*548 FILLER_0_111_769
*549 FILLER_0_111_781
*550 FILLER_0_111_793
*551 FILLER_0_112_703
*552 FILLER_0_112_715
*553 FILLER_0_112_727
*554 FILLER_0_112_729
*555 FILLER_0_112_741
*556 FILLER_0_112_753
*557 FILLER_0_112_765
*558 FILLER_0_112_777
*559 FILLER_0_112_783
*560 FILLER_0_112_785
*561 FILLER_0_112_797
*562 FILLER_0_113_703
*563 FILLER_0_113_715
*564 FILLER_0_113_727
*565 FILLER_0_113_739
*566 FILLER_0_113_751
*567 FILLER_0_113_755
*568 FILLER_0_113_757
*569 FILLER_0_113_769
*570 FILLER_0_113_781
*571 FILLER_0_113_793
*572 FILLER_0_114_703
*573 FILLER_0_114_715
*574 FILLER_0_114_727
*575 FILLER_0_114_729
*576 FILLER_0_114_741
*577 FILLER_0_114_753
*578 FILLER_0_114_765
*579 FILLER_0_114_777
*580 FILLER_0_114_783
*581 FILLER_0_114_785
*582 FILLER_0_114_797
*583 FILLER_0_115_703
*584 FILLER_0_115_715
*585 FILLER_0_115_727
*586 FILLER_0_115_739
*587 FILLER_0_115_751
*588 FILLER_0_115_755
*589 FILLER_0_115_757
*590 FILLER_0_115_769
*591 FILLER_0_115_781
*592 FILLER_0_115_793
*593 FILLER_0_116_703
*594 FILLER_0_116_715
*595 FILLER_0_116_727
*596 FILLER_0_116_729
*597 FILLER_0_116_741
*598 FILLER_0_116_753
*599 FILLER_0_116_765
*600 FILLER_0_116_777
*601 FILLER_0_116_783
*602 FILLER_0_116_785
*603 FILLER_0_116_797
*604 FILLER_0_117_703
*605 FILLER_0_117_715
*606 FILLER_0_117_727
*607 FILLER_0_117_739
*608 FILLER_0_117_751
*609 FILLER_0_117_755
*610 FILLER_0_117_757
*611 FILLER_0_117_769
*612 FILLER_0_117_781
*613 FILLER_0_117_793
*614 FILLER_0_118_703
*615 FILLER_0_118_707
*616 FILLER_0_118_719
*617 FILLER_0_118_727
*618 FILLER_0_118_729
*619 FILLER_0_118_741
*620 FILLER_0_118_753
*621 FILLER_0_118_765
*622 FILLER_0_118_777
*623 FILLER_0_118_783
*624 FILLER_0_118_785
*625 FILLER_0_118_793
*626 FILLER_0_119_703
*627 FILLER_0_119_715
*628 FILLER_0_119_727
*629 FILLER_0_119_739
*630 FILLER_0_119_751
*631 FILLER_0_119_755
*632 FILLER_0_119_757
*633 FILLER_0_119_769
*634 FILLER_0_119_781
*635 FILLER_0_119_793
*636 FILLER_0_11_703
*637 FILLER_0_11_715
*638 FILLER_0_11_727
*639 FILLER_0_11_739
*640 FILLER_0_11_751
*641 FILLER_0_11_755
*642 FILLER_0_11_757
*643 FILLER_0_11_769
*644 FILLER_0_11_781
*645 FILLER_0_11_793
*646 FILLER_0_120_703
*647 FILLER_0_120_715
*648 FILLER_0_120_727
*649 FILLER_0_120_729
*650 FILLER_0_120_741
*651 FILLER_0_120_753
*652 FILLER_0_120_765
*653 FILLER_0_120_777
*654 FILLER_0_120_783
*655 FILLER_0_120_785
*656 FILLER_0_120_797
*657 FILLER_0_121_703
*658 FILLER_0_121_715
*659 FILLER_0_121_727
*660 FILLER_0_121_739
*661 FILLER_0_121_751
*662 FILLER_0_121_755
*663 FILLER_0_121_757
*664 FILLER_0_121_769
*665 FILLER_0_121_781
*666 FILLER_0_121_793
*667 FILLER_0_122_703
*668 FILLER_0_122_715
*669 FILLER_0_122_727
*670 FILLER_0_122_729
*671 FILLER_0_122_741
*672 FILLER_0_122_753
*673 FILLER_0_122_765
*674 FILLER_0_122_777
*675 FILLER_0_122_783
*676 FILLER_0_122_785
*677 FILLER_0_122_797
*678 FILLER_0_123_703
*679 FILLER_0_123_715
*680 FILLER_0_123_727
*681 FILLER_0_123_739
*682 FILLER_0_123_751
*683 FILLER_0_123_755
*684 FILLER_0_123_757
*685 FILLER_0_123_769
*686 FILLER_0_123_781
*687 FILLER_0_123_793
*688 FILLER_0_124_703
*689 FILLER_0_124_715
*690 FILLER_0_124_727
*691 FILLER_0_124_729
*692 FILLER_0_124_741
*693 FILLER_0_124_753
*694 FILLER_0_124_765
*695 FILLER_0_124_777
*696 FILLER_0_124_783
*697 FILLER_0_124_785
*698 FILLER_0_124_797
*699 FILLER_0_125_703
*700 FILLER_0_125_715
*701 FILLER_0_125_727
*702 FILLER_0_125_739
*703 FILLER_0_125_751
*704 FILLER_0_125_755
*705 FILLER_0_125_757
*706 FILLER_0_125_769
*707 FILLER_0_125_781
*708 FILLER_0_125_793
*709 FILLER_0_126_703
*710 FILLER_0_126_715
*711 FILLER_0_126_727
*712 FILLER_0_126_729
*713 FILLER_0_126_741
*714 FILLER_0_126_753
*715 FILLER_0_126_765
*716 FILLER_0_126_777
*717 FILLER_0_126_783
*718 FILLER_0_126_785
*719 FILLER_0_126_797
*720 FILLER_0_127_703
*721 FILLER_0_127_715
*722 FILLER_0_127_727
*723 FILLER_0_127_739
*724 FILLER_0_127_751
*725 FILLER_0_127_755
*726 FILLER_0_127_757
*727 FILLER_0_127_769
*728 FILLER_0_127_781
*729 FILLER_0_127_793
*730 FILLER_0_128_703
*731 FILLER_0_128_715
*732 FILLER_0_128_727
*733 FILLER_0_128_729
*734 FILLER_0_128_741
*735 FILLER_0_128_753
*736 FILLER_0_128_765
*737 FILLER_0_128_777
*738 FILLER_0_128_783
*739 FILLER_0_128_785
*740 FILLER_0_128_797
*741 FILLER_0_129_703
*742 FILLER_0_129_715
*743 FILLER_0_129_727
*744 FILLER_0_129_739
*745 FILLER_0_129_751
*746 FILLER_0_129_755
*747 FILLER_0_129_757
*748 FILLER_0_129_769
*749 FILLER_0_129_781
*750 FILLER_0_129_793
*751 FILLER_0_12_703
*752 FILLER_0_12_715
*753 FILLER_0_12_727
*754 FILLER_0_12_729
*755 FILLER_0_12_741
*756 FILLER_0_12_753
*757 FILLER_0_12_765
*758 FILLER_0_12_777
*759 FILLER_0_12_783
*760 FILLER_0_12_785
*761 FILLER_0_12_797
*762 FILLER_0_130_709
*763 FILLER_0_130_721
*764 FILLER_0_130_727
*765 FILLER_0_130_729
*766 FILLER_0_130_741
*767 FILLER_0_130_753
*768 FILLER_0_130_765
*769 FILLER_0_130_777
*770 FILLER_0_130_783
*771 FILLER_0_130_785
*772 FILLER_0_130_797
*773 FILLER_0_131_703
*774 FILLER_0_131_715
*775 FILLER_0_131_727
*776 FILLER_0_131_739
*777 FILLER_0_131_751
*778 FILLER_0_131_755
*779 FILLER_0_131_757
*780 FILLER_0_131_769
*781 FILLER_0_131_781
*782 FILLER_0_131_793
*783 FILLER_0_132_703
*784 FILLER_0_132_715
*785 FILLER_0_132_727
*786 FILLER_0_132_729
*787 FILLER_0_132_741
*788 FILLER_0_132_753
*789 FILLER_0_132_765
*790 FILLER_0_132_777
*791 FILLER_0_132_783
*792 FILLER_0_132_785
*793 FILLER_0_132_797
*794 FILLER_0_133_703
*795 FILLER_0_133_715
*796 FILLER_0_133_727
*797 FILLER_0_133_739
*798 FILLER_0_133_751
*799 FILLER_0_133_755
*800 FILLER_0_133_757
*801 FILLER_0_133_769
*802 FILLER_0_133_781
*803 FILLER_0_133_793
*804 FILLER_0_134_703
*805 FILLER_0_134_715
*806 FILLER_0_134_727
*807 FILLER_0_134_729
*808 FILLER_0_134_741
*809 FILLER_0_134_753
*810 FILLER_0_134_765
*811 FILLER_0_134_777
*812 FILLER_0_134_783
*813 FILLER_0_134_785
*814 FILLER_0_134_793
*815 FILLER_0_135_709
*816 FILLER_0_135_721
*817 FILLER_0_135_733
*818 FILLER_0_135_745
*819 FILLER_0_135_753
*820 FILLER_0_135_757
*821 FILLER_0_135_769
*822 FILLER_0_135_781
*823 FILLER_0_135_793
*824 FILLER_0_136_703
*825 FILLER_0_136_715
*826 FILLER_0_136_727
*827 FILLER_0_136_729
*828 FILLER_0_136_741
*829 FILLER_0_136_753
*830 FILLER_0_136_765
*831 FILLER_0_136_777
*832 FILLER_0_136_783
*833 FILLER_0_136_785
*834 FILLER_0_136_797
*835 FILLER_0_137_703
*836 FILLER_0_137_715
*837 FILLER_0_137_727
*838 FILLER_0_137_739
*839 FILLER_0_137_751
*840 FILLER_0_137_755
*841 FILLER_0_137_757
*842 FILLER_0_137_769
*843 FILLER_0_137_781
*844 FILLER_0_137_793
*845 FILLER_0_138_703
*846 FILLER_0_138_715
*847 FILLER_0_138_727
*848 FILLER_0_138_729
*849 FILLER_0_138_741
*850 FILLER_0_138_753
*851 FILLER_0_138_765
*852 FILLER_0_138_777
*853 FILLER_0_138_783
*854 FILLER_0_138_785
*855 FILLER_0_138_797
*856 FILLER_0_139_703
*857 FILLER_0_139_715
*858 FILLER_0_139_727
*859 FILLER_0_139_739
*860 FILLER_0_139_751
*861 FILLER_0_139_755
*862 FILLER_0_139_757
*863 FILLER_0_139_769
*864 FILLER_0_139_781
*865 FILLER_0_139_793
*866 FILLER_0_13_703
*867 FILLER_0_13_715
*868 FILLER_0_13_727
*869 FILLER_0_13_739
*870 FILLER_0_13_751
*871 FILLER_0_13_755
*872 FILLER_0_13_757
*873 FILLER_0_13_769
*874 FILLER_0_13_781
*875 FILLER_0_13_793
*876 FILLER_0_140_709
*877 FILLER_0_140_721
*878 FILLER_0_140_727
*879 FILLER_0_140_729
*880 FILLER_0_140_741
*881 FILLER_0_140_753
*882 FILLER_0_140_765
*883 FILLER_0_140_777
*884 FILLER_0_140_783
*885 FILLER_0_140_785
*886 FILLER_0_140_797
*887 FILLER_0_141_703
*888 FILLER_0_141_715
*889 FILLER_0_141_727
*890 FILLER_0_141_739
*891 FILLER_0_141_751
*892 FILLER_0_141_755
*893 FILLER_0_141_757
*894 FILLER_0_141_769
*895 FILLER_0_141_781
*896 FILLER_0_141_793
*897 FILLER_0_142_703
*898 FILLER_0_142_715
*899 FILLER_0_142_727
*900 FILLER_0_142_729
*901 FILLER_0_142_741
*902 FILLER_0_142_753
*903 FILLER_0_142_765
*904 FILLER_0_142_777
*905 FILLER_0_142_783
*906 FILLER_0_142_785
*907 FILLER_0_142_797
*908 FILLER_0_143_703
*909 FILLER_0_143_715
*910 FILLER_0_143_727
*911 FILLER_0_143_739
*912 FILLER_0_143_751
*913 FILLER_0_143_755
*914 FILLER_0_143_757
*915 FILLER_0_143_769
*916 FILLER_0_143_781
*917 FILLER_0_143_793
*918 FILLER_0_144_703
*919 FILLER_0_144_715
*920 FILLER_0_144_727
*921 FILLER_0_144_729
*922 FILLER_0_144_741
*923 FILLER_0_144_753
*924 FILLER_0_144_765
*925 FILLER_0_144_777
*926 FILLER_0_144_783
*927 FILLER_0_144_785
*928 FILLER_0_144_797
*929 FILLER_0_145_714
*930 FILLER_0_145_726
*931 FILLER_0_145_738
*932 FILLER_0_145_750
*933 FILLER_0_145_757
*934 FILLER_0_145_769
*935 FILLER_0_145_781
*936 FILLER_0_145_793
*937 FILLER_0_146_703
*938 FILLER_0_146_707
*939 FILLER_0_146_719
*940 FILLER_0_146_727
*941 FILLER_0_146_729
*942 FILLER_0_146_741
*943 FILLER_0_146_753
*944 FILLER_0_146_765
*945 FILLER_0_146_777
*946 FILLER_0_146_783
*947 FILLER_0_146_785
*948 FILLER_0_146_797
*949 FILLER_0_147_703
*950 FILLER_0_147_707
*951 FILLER_0_147_711
*952 FILLER_0_147_715
*953 FILLER_0_147_727
*954 FILLER_0_147_739
*955 FILLER_0_147_751
*956 FILLER_0_147_755
*957 FILLER_0_147_757
*958 FILLER_0_147_769
*959 FILLER_0_147_781
*960 FILLER_0_147_793
*961 FILLER_0_148_703
*962 FILLER_0_148_707
*963 FILLER_0_148_711
*964 FILLER_0_148_719
*965 FILLER_0_148_723
*966 FILLER_0_148_727
*967 FILLER_0_148_729
*968 FILLER_0_148_741
*969 FILLER_0_148_753
*970 FILLER_0_148_765
*971 FILLER_0_148_777
*972 FILLER_0_148_783
*973 FILLER_0_148_785
*974 FILLER_0_148_797
*975 FILLER_0_149_709
*976 FILLER_0_149_728
*977 FILLER_0_149_732
*978 FILLER_0_149_744
*979 FILLER_0_149_757
*980 FILLER_0_149_769
*981 FILLER_0_149_781
*982 FILLER_0_149_793
*983 FILLER_0_14_703
*984 FILLER_0_14_715
*985 FILLER_0_14_727
*986 FILLER_0_14_729
*987 FILLER_0_14_741
*988 FILLER_0_14_753
*989 FILLER_0_14_765
*990 FILLER_0_14_777
*991 FILLER_0_14_783
*992 FILLER_0_14_785
*993 FILLER_0_14_797
*994 FILLER_0_150_715
*995 FILLER_0_150_719
*996 FILLER_0_150_725
*997 FILLER_0_150_733
*998 FILLER_0_150_737
*999 FILLER_0_150_749
*1000 FILLER_0_150_761
*1001 FILLER_0_150_773
*1002 FILLER_0_150_781
*1003 FILLER_0_150_785
*1004 FILLER_0_150_793
*1005 FILLER_0_151_707
*1006 FILLER_0_151_719
*1007 FILLER_0_151_723
*1008 FILLER_0_151_727
*1009 FILLER_0_151_744
*1010 FILLER_0_151_748
*1011 FILLER_0_151_757
*1012 FILLER_0_151_769
*1013 FILLER_0_151_781
*1014 FILLER_0_151_793
*1015 FILLER_0_152_719
*1016 FILLER_0_152_727
*1017 FILLER_0_152_735
*1018 FILLER_0_152_739
*1019 FILLER_0_152_743
*1020 FILLER_0_152_748
*1021 FILLER_0_152_754
*1022 FILLER_0_152_758
*1023 FILLER_0_152_762
*1024 FILLER_0_152_774
*1025 FILLER_0_152_782
*1026 FILLER_0_152_785
*1027 FILLER_0_152_797
*1028 FILLER_0_153_746
*1029 FILLER_0_153_750
*1030 FILLER_0_153_754
*1031 FILLER_0_153_757
*1032 FILLER_0_153_765
*1033 FILLER_0_153_769
*1034 FILLER_0_153_773
*1035 FILLER_0_153_777
*1036 FILLER_0_153_781
*1037 FILLER_0_153_793
*1038 FILLER_0_154_727
*1039 FILLER_0_154_750
*1040 FILLER_0_154_754
*1041 FILLER_0_154_758
*1042 FILLER_0_154_762
*1043 FILLER_0_154_766
*1044 FILLER_0_154_770
*1045 FILLER_0_154_774
*1046 FILLER_0_154_778
*1047 FILLER_0_154_782
*1048 FILLER_0_154_785
*1049 FILLER_0_154_797
*1050 FILLER_0_155_727
*1051 FILLER_0_155_745
*1052 FILLER_0_155_753
*1053 FILLER_0_155_761
*1054 FILLER_0_155_765
*1055 FILLER_0_155_775
*1056 FILLER_0_155_779
*1057 FILLER_0_155_785
*1058 FILLER_0_155_789
*1059 FILLER_0_155_793
*1060 FILLER_0_15_703
*1061 FILLER_0_15_715
*1062 FILLER_0_15_727
*1063 FILLER_0_15_739
*1064 FILLER_0_15_751
*1065 FILLER_0_15_755
*1066 FILLER_0_15_757
*1067 FILLER_0_15_769
*1068 FILLER_0_15_781
*1069 FILLER_0_15_793
*1070 FILLER_0_16_703
*1071 FILLER_0_16_715
*1072 FILLER_0_16_727
*1073 FILLER_0_16_729
*1074 FILLER_0_16_741
*1075 FILLER_0_16_753
*1076 FILLER_0_16_765
*1077 FILLER_0_16_777
*1078 FILLER_0_16_783
*1079 FILLER_0_16_785
*1080 FILLER_0_16_797
*1081 FILLER_0_17_703
*1082 FILLER_0_17_715
*1083 FILLER_0_17_727
*1084 FILLER_0_17_739
*1085 FILLER_0_17_751
*1086 FILLER_0_17_755
*1087 FILLER_0_17_757
*1088 FILLER_0_17_769
*1089 FILLER_0_17_781
*1090 FILLER_0_17_793
*1091 FILLER_0_18_703
*1092 FILLER_0_18_715
*1093 FILLER_0_18_727
*1094 FILLER_0_18_729
*1095 FILLER_0_18_741
*1096 FILLER_0_18_753
*1097 FILLER_0_18_765
*1098 FILLER_0_18_777
*1099 FILLER_0_18_783
*1100 FILLER_0_18_785
*1101 FILLER_0_18_797
*1102 FILLER_0_19_703
*1103 FILLER_0_19_715
*1104 FILLER_0_19_727
*1105 FILLER_0_19_739
*1106 FILLER_0_19_751
*1107 FILLER_0_19_755
*1108 FILLER_0_19_757
*1109 FILLER_0_19_769
*1110 FILLER_0_19_781
*1111 FILLER_0_19_793
*1112 FILLER_0_1_105
*1113 FILLER_0_1_111
*1114 FILLER_0_1_113
*1115 FILLER_0_1_125
*1116 FILLER_0_1_13
*1117 FILLER_0_1_137
*1118 FILLER_0_1_149
*1119 FILLER_0_1_161
*1120 FILLER_0_1_167
*1121 FILLER_0_1_169
*1122 FILLER_0_1_181
*1123 FILLER_0_1_193
*1124 FILLER_0_1_205
*1125 FILLER_0_1_217
*1126 FILLER_0_1_223
*1127 FILLER_0_1_225
*1128 FILLER_0_1_237
*1129 FILLER_0_1_249
*1130 FILLER_0_1_25
*1131 FILLER_0_1_261
*1132 FILLER_0_1_273
*1133 FILLER_0_1_279
*1134 FILLER_0_1_281
*1135 FILLER_0_1_293
*1136 FILLER_0_1_305
*1137 FILLER_0_1_317
*1138 FILLER_0_1_329
*1139 FILLER_0_1_335
*1140 FILLER_0_1_337
*1141 FILLER_0_1_349
*1142 FILLER_0_1_361
*1143 FILLER_0_1_37
*1144 FILLER_0_1_373
*1145 FILLER_0_1_385
*1146 FILLER_0_1_391
*1147 FILLER_0_1_393
*1148 FILLER_0_1_405
*1149 FILLER_0_1_417
*1150 FILLER_0_1_429
*1151 FILLER_0_1_441
*1152 FILLER_0_1_447
*1153 FILLER_0_1_449
*1154 FILLER_0_1_461
*1155 FILLER_0_1_473
*1156 FILLER_0_1_485
*1157 FILLER_0_1_49
*1158 FILLER_0_1_497
*1159 FILLER_0_1_503
*1160 FILLER_0_1_505
*1161 FILLER_0_1_517
*1162 FILLER_0_1_529
*1163 FILLER_0_1_541
*1164 FILLER_0_1_55
*1165 FILLER_0_1_553
*1166 FILLER_0_1_559
*1167 FILLER_0_1_561
*1168 FILLER_0_1_57
*1169 FILLER_0_1_573
*1170 FILLER_0_1_585
*1171 FILLER_0_1_597
*1172 FILLER_0_1_609
*1173 FILLER_0_1_615
*1174 FILLER_0_1_617
*1175 FILLER_0_1_629
*1176 FILLER_0_1_641
*1177 FILLER_0_1_653
*1178 FILLER_0_1_665
*1179 FILLER_0_1_671
*1180 FILLER_0_1_673
*1181 FILLER_0_1_685
*1182 FILLER_0_1_69
*1183 FILLER_0_1_697
*1184 FILLER_0_1_709
*1185 FILLER_0_1_721
*1186 FILLER_0_1_727
*1187 FILLER_0_1_729
*1188 FILLER_0_1_741
*1189 FILLER_0_1_753
*1190 FILLER_0_1_765
*1191 FILLER_0_1_777
*1192 FILLER_0_1_783
*1193 FILLER_0_1_785
*1194 FILLER_0_1_797
*1195 FILLER_0_1_81
*1196 FILLER_0_1_9
*1197 FILLER_0_1_93
*1198 FILLER_0_20_703
*1199 FILLER_0_20_715
*1200 FILLER_0_20_727
*1201 FILLER_0_20_729
*1202 FILLER_0_20_741
*1203 FILLER_0_20_753
*1204 FILLER_0_20_765
*1205 FILLER_0_20_777
*1206 FILLER_0_20_783
*1207 FILLER_0_20_785
*1208 FILLER_0_20_797
*1209 FILLER_0_21_703
*1210 FILLER_0_21_715
*1211 FILLER_0_21_727
*1212 FILLER_0_21_739
*1213 FILLER_0_21_751
*1214 FILLER_0_21_755
*1215 FILLER_0_21_757
*1216 FILLER_0_21_769
*1217 FILLER_0_21_781
*1218 FILLER_0_21_793
*1219 FILLER_0_22_703
*1220 FILLER_0_22_715
*1221 FILLER_0_22_727
*1222 FILLER_0_22_729
*1223 FILLER_0_22_741
*1224 FILLER_0_22_753
*1225 FILLER_0_22_765
*1226 FILLER_0_22_777
*1227 FILLER_0_22_783
*1228 FILLER_0_22_785
*1229 FILLER_0_22_793
*1230 FILLER_0_23_703
*1231 FILLER_0_23_715
*1232 FILLER_0_23_727
*1233 FILLER_0_23_739
*1234 FILLER_0_23_751
*1235 FILLER_0_23_755
*1236 FILLER_0_23_757
*1237 FILLER_0_23_769
*1238 FILLER_0_23_781
*1239 FILLER_0_23_793
*1240 FILLER_0_24_703
*1241 FILLER_0_24_715
*1242 FILLER_0_24_727
*1243 FILLER_0_24_729
*1244 FILLER_0_24_741
*1245 FILLER_0_24_753
*1246 FILLER_0_24_765
*1247 FILLER_0_24_777
*1248 FILLER_0_24_783
*1249 FILLER_0_24_785
*1250 FILLER_0_24_797
*1251 FILLER_0_25_703
*1252 FILLER_0_25_715
*1253 FILLER_0_25_727
*1254 FILLER_0_25_739
*1255 FILLER_0_25_751
*1256 FILLER_0_25_755
*1257 FILLER_0_25_757
*1258 FILLER_0_25_769
*1259 FILLER_0_25_781
*1260 FILLER_0_25_793
*1261 FILLER_0_26_703
*1262 FILLER_0_26_715
*1263 FILLER_0_26_727
*1264 FILLER_0_26_729
*1265 FILLER_0_26_741
*1266 FILLER_0_26_753
*1267 FILLER_0_26_765
*1268 FILLER_0_26_777
*1269 FILLER_0_26_783
*1270 FILLER_0_26_785
*1271 FILLER_0_26_797
*1272 FILLER_0_27_703
*1273 FILLER_0_27_715
*1274 FILLER_0_27_727
*1275 FILLER_0_27_739
*1276 FILLER_0_27_751
*1277 FILLER_0_27_755
*1278 FILLER_0_27_757
*1279 FILLER_0_27_769
*1280 FILLER_0_27_781
*1281 FILLER_0_27_793
*1282 FILLER_0_28_703
*1283 FILLER_0_28_715
*1284 FILLER_0_28_727
*1285 FILLER_0_28_729
*1286 FILLER_0_28_741
*1287 FILLER_0_28_753
*1288 FILLER_0_28_765
*1289 FILLER_0_28_777
*1290 FILLER_0_28_783
*1291 FILLER_0_28_785
*1292 FILLER_0_28_797
*1293 FILLER_0_29_703
*1294 FILLER_0_29_715
*1295 FILLER_0_29_727
*1296 FILLER_0_29_739
*1297 FILLER_0_29_751
*1298 FILLER_0_29_755
*1299 FILLER_0_29_757
*1300 FILLER_0_29_769
*1301 FILLER_0_29_781
*1302 FILLER_0_29_793
*1303 FILLER_0_2_109
*1304 FILLER_0_2_11
*1305 FILLER_0_2_121
*1306 FILLER_0_2_133
*1307 FILLER_0_2_139
*1308 FILLER_0_2_141
*1309 FILLER_0_2_153
*1310 FILLER_0_2_165
*1311 FILLER_0_2_177
*1312 FILLER_0_2_189
*1313 FILLER_0_2_19
*1314 FILLER_0_2_195
*1315 FILLER_0_2_197
*1316 FILLER_0_2_209
*1317 FILLER_0_2_221
*1318 FILLER_0_2_233
*1319 FILLER_0_2_245
*1320 FILLER_0_2_251
*1321 FILLER_0_2_253
*1322 FILLER_0_2_265
*1323 FILLER_0_2_27
*1324 FILLER_0_2_277
*1325 FILLER_0_2_289
*1326 FILLER_0_2_29
*1327 FILLER_0_2_3
*1328 FILLER_0_2_301
*1329 FILLER_0_2_307
*1330 FILLER_0_2_309
*1331 FILLER_0_2_321
*1332 FILLER_0_2_333
*1333 FILLER_0_2_345
*1334 FILLER_0_2_357
*1335 FILLER_0_2_363
*1336 FILLER_0_2_365
*1337 FILLER_0_2_377
*1338 FILLER_0_2_389
*1339 FILLER_0_2_401
*1340 FILLER_0_2_41
*1341 FILLER_0_2_413
*1342 FILLER_0_2_419
*1343 FILLER_0_2_421
*1344 FILLER_0_2_433
*1345 FILLER_0_2_445
*1346 FILLER_0_2_457
*1347 FILLER_0_2_469
*1348 FILLER_0_2_475
*1349 FILLER_0_2_477
*1350 FILLER_0_2_489
*1351 FILLER_0_2_501
*1352 FILLER_0_2_513
*1353 FILLER_0_2_525
*1354 FILLER_0_2_53
*1355 FILLER_0_2_531
*1356 FILLER_0_2_533
*1357 FILLER_0_2_545
*1358 FILLER_0_2_557
*1359 FILLER_0_2_569
*1360 FILLER_0_2_581
*1361 FILLER_0_2_587
*1362 FILLER_0_2_589
*1363 FILLER_0_2_601
*1364 FILLER_0_2_613
*1365 FILLER_0_2_625
*1366 FILLER_0_2_637
*1367 FILLER_0_2_643
*1368 FILLER_0_2_645
*1369 FILLER_0_2_65
*1370 FILLER_0_2_657
*1371 FILLER_0_2_669
*1372 FILLER_0_2_681
*1373 FILLER_0_2_693
*1374 FILLER_0_2_699
*1375 FILLER_0_2_701
*1376 FILLER_0_2_713
*1377 FILLER_0_2_725
*1378 FILLER_0_2_737
*1379 FILLER_0_2_749
*1380 FILLER_0_2_755
*1381 FILLER_0_2_757
*1382 FILLER_0_2_769
*1383 FILLER_0_2_77
*1384 FILLER_0_2_781
*1385 FILLER_0_2_793
*1386 FILLER_0_2_83
*1387 FILLER_0_2_85
*1388 FILLER_0_2_97
*1389 FILLER_0_30_703
*1390 FILLER_0_30_715
*1391 FILLER_0_30_727
*1392 FILLER_0_30_729
*1393 FILLER_0_30_741
*1394 FILLER_0_30_753
*1395 FILLER_0_30_765
*1396 FILLER_0_30_777
*1397 FILLER_0_30_783
*1398 FILLER_0_30_785
*1399 FILLER_0_30_797
*1400 FILLER_0_31_703
*1401 FILLER_0_31_715
*1402 FILLER_0_31_727
*1403 FILLER_0_31_739
*1404 FILLER_0_31_751
*1405 FILLER_0_31_755
*1406 FILLER_0_31_757
*1407 FILLER_0_31_769
*1408 FILLER_0_31_781
*1409 FILLER_0_31_793
*1410 FILLER_0_32_703
*1411 FILLER_0_32_715
*1412 FILLER_0_32_727
*1413 FILLER_0_32_729
*1414 FILLER_0_32_741
*1415 FILLER_0_32_753
*1416 FILLER_0_32_765
*1417 FILLER_0_32_777
*1418 FILLER_0_32_783
*1419 FILLER_0_32_785
*1420 FILLER_0_32_797
*1421 FILLER_0_33_703
*1422 FILLER_0_33_715
*1423 FILLER_0_33_727
*1424 FILLER_0_33_739
*1425 FILLER_0_33_751
*1426 FILLER_0_33_755
*1427 FILLER_0_33_757
*1428 FILLER_0_33_769
*1429 FILLER_0_33_781
*1430 FILLER_0_33_793
*1431 FILLER_0_34_703
*1432 FILLER_0_34_715
*1433 FILLER_0_34_727
*1434 FILLER_0_34_729
*1435 FILLER_0_34_741
*1436 FILLER_0_34_753
*1437 FILLER_0_34_765
*1438 FILLER_0_34_777
*1439 FILLER_0_34_783
*1440 FILLER_0_34_785
*1441 FILLER_0_34_797
*1442 FILLER_0_35_703
*1443 FILLER_0_35_715
*1444 FILLER_0_35_727
*1445 FILLER_0_35_739
*1446 FILLER_0_35_751
*1447 FILLER_0_35_755
*1448 FILLER_0_35_757
*1449 FILLER_0_35_769
*1450 FILLER_0_35_781
*1451 FILLER_0_35_793
*1452 FILLER_0_36_703
*1453 FILLER_0_36_715
*1454 FILLER_0_36_727
*1455 FILLER_0_36_729
*1456 FILLER_0_36_741
*1457 FILLER_0_36_753
*1458 FILLER_0_36_765
*1459 FILLER_0_36_777
*1460 FILLER_0_36_783
*1461 FILLER_0_36_785
*1462 FILLER_0_36_797
*1463 FILLER_0_37_703
*1464 FILLER_0_37_715
*1465 FILLER_0_37_727
*1466 FILLER_0_37_739
*1467 FILLER_0_37_751
*1468 FILLER_0_37_755
*1469 FILLER_0_37_757
*1470 FILLER_0_37_769
*1471 FILLER_0_37_781
*1472 FILLER_0_37_793
*1473 FILLER_0_38_703
*1474 FILLER_0_38_715
*1475 FILLER_0_38_727
*1476 FILLER_0_38_729
*1477 FILLER_0_38_741
*1478 FILLER_0_38_753
*1479 FILLER_0_38_765
*1480 FILLER_0_38_777
*1481 FILLER_0_38_783
*1482 FILLER_0_38_785
*1483 FILLER_0_38_793
*1484 FILLER_0_39_703
*1485 FILLER_0_39_715
*1486 FILLER_0_39_727
*1487 FILLER_0_39_739
*1488 FILLER_0_39_751
*1489 FILLER_0_39_755
*1490 FILLER_0_39_757
*1491 FILLER_0_39_769
*1492 FILLER_0_39_781
*1493 FILLER_0_39_793
*1494 FILLER_0_3_105
*1495 FILLER_0_3_111
*1496 FILLER_0_3_113
*1497 FILLER_0_3_125
*1498 FILLER_0_3_137
*1499 FILLER_0_3_149
*1500 FILLER_0_3_15
*1501 FILLER_0_3_161
*1502 FILLER_0_3_167
*1503 FILLER_0_3_169
*1504 FILLER_0_3_181
*1505 FILLER_0_3_193
*1506 FILLER_0_3_205
*1507 FILLER_0_3_217
*1508 FILLER_0_3_223
*1509 FILLER_0_3_225
*1510 FILLER_0_3_237