*SPEF "ieee 1481-1999"
*DESIGN "decoder_m"
*DATE "11:11:11 Fri 11 11, 1111"
*VENDOR "OpenRCX"
*PROGRAM "Parallel Extraction"
*VERSION "1.0"
*DESIGN_FLOW "NAME_SCOPE LOCAL" "PIN_CAP NONE"
*DIVIDER /
*DELIMITER :
*BUS_DELIMITER []
*T_UNIT 1 NS
*C_UNIT 1 PF
*R_UNIT 1 OHM
*L_UNIT 1 HENRY

*NAME_MAP
*1 control_sigs_o[0]
*2 control_sigs_o[10]
*3 control_sigs_o[11]
*4 control_sigs_o[12]
*5 control_sigs_o[13]
*6 control_sigs_o[14]
*7 control_sigs_o[15]
*8 control_sigs_o[16]
*9 control_sigs_o[17]
*10 control_sigs_o[18]
*11 control_sigs_o[19]
*12 control_sigs_o[1]
*13 control_sigs_o[20]
*14 control_sigs_o[21]
*15 control_sigs_o[22]
*16 control_sigs_o[2]
*17 control_sigs_o[3]
*18 control_sigs_o[4]
*19 control_sigs_o[5]
*20 control_sigs_o[6]
*21 control_sigs_o[7]
*22 control_sigs_o[8]
*23 control_sigs_o[9]
*24 instruction_i[0]
*25 instruction_i[10]
*26 instruction_i[11]
*27 instruction_i[12]
*28 instruction_i[13]
*29 instruction_i[14]
*30 instruction_i[15]
*31 instruction_i[16]
*32 instruction_i[17]
*33 instruction_i[18]
*34 instruction_i[19]
*35 instruction_i[1]
*36 instruction_i[20]
*37 instruction_i[21]
*38 instruction_i[22]
*39 instruction_i[23]
*40 instruction_i[24]
*41 instruction_i[25]
*42 instruction_i[26]
*43 instruction_i[27]
*44 instruction_i[28]
*45 instruction_i[29]
*46 instruction_i[2]
*47 instruction_i[30]
*48 instruction_i[31]
*49 instruction_i[3]
*50 instruction_i[4]
*51 instruction_i[5]
*52 instruction_i[6]
*53 instruction_i[7]
*54 instruction_i[8]
*55 instruction_i[9]
*58 _000_
*59 _001_
*60 _002_
*61 _003_
*62 _004_
*63 _005_
*64 _006_
*65 _007_
*66 _008_
*67 _009_
*68 _010_
*69 _011_
*70 _012_
*71 _013_
*72 _014_
*73 _015_
*74 _016_
*75 _017_
*76 _018_
*77 _019_
*78 _020_
*79 _021_
*80 _022_
*81 _023_
*82 _024_
*83 _025_
*84 _026_
*85 _027_
*86 _028_
*87 _029_
*88 _030_
*89 _031_
*90 _032_
*91 _033_
*92 _034_
*93 _035_
*94 _036_
*95 _037_
*96 _038_
*97 _039_
*98 _040_
*99 _041_
*100 _042_
*101 _043_
*102 _044_
*103 _045_
*104 _046_
*105 _047_
*106 _048_
*107 _049_
*108 _050_
*109 _051_
*110 _052_
*111 _053_
*112 _054_
*113 _055_
*114 _056_
*115 _057_
*116 _058_
*117 _059_
*118 _060_
*119 _061_
*120 _062_
*121 _063_
*122 _064_
*123 _065_
*124 _066_
*125 _067_
*126 _068_
*127 _069_
*128 _070_
*129 _071_
*130 _072_
*131 _073_
*132 _074_
*133 _075_
*134 _076_
*135 _077_
*136 _078_
*137 _079_
*138 _080_
*139 _081_
*140 _082_
*141 _083_
*142 _084_
*143 _085_
*144 _086_
*145 _087_
*146 _088_
*147 _089_
*148 _090_
*149 _091_
*150 _092_
*151 _093_
*152 _094_
*153 _095_
*154 _096_
*155 _097_
*156 _098_
*157 _099_
*158 _100_
*159 _101_
*160 _102_
*161 _103_
*162 _104_
*163 _105_
*164 _106_
*165 _107_
*166 _108_
*167 _109_
*168 _110_
*169 _111_
*170 _112_
*171 _113_
*172 _114_
*173 _115_
*174 _116_
*175 _117_
*176 _118_
*177 _119_
*178 _120_
*179 net1
*180 net10
*181 net11
*182 net12
*183 net13
*184 net14
*185 net15
*186 net16
*187 net17
*188 net18
*189 net19
*190 net2
*191 net20
*192 net21
*193 net22
*194 net23
*195 net24
*196 net25
*197 net26
*198 net27
*199 net28
*200 net29
*201 net3
*202 net30
*203 net31
*204 net32
*205 net33
*206 net34
*207 net35
*208 net36
*209 net4
*210 net5
*211 net6
*212 net7
*213 net8
*214 net9
*215 ANTENNA__121__A
*216 ANTENNA__122__B
*217 ANTENNA__123__A
*218 ANTENNA__124__A
*219 ANTENNA__125__A
*220 ANTENNA__125__B
*221 ANTENNA__128__A
*222 ANTENNA__128__B
*223 ANTENNA__130__A
*224 ANTENNA__131__A
*225 ANTENNA__134__B
*226 ANTENNA__138__A
*227 ANTENNA__139__A
*228 ANTENNA__140__A
*229 ANTENNA__140__B
*230 ANTENNA__148__A
*231 ANTENNA__149__A
*232 ANTENNA__152__A
*233 ANTENNA__154__A
*234 ANTENNA__154__B
*235 ANTENNA__161__A
*236 ANTENNA__162__A
*237 ANTENNA__163__A
*238 ANTENNA__166__B
*239 ANTENNA__168__A
*240 ANTENNA__168__B
*241 ANTENNA__170__A
*242 ANTENNA__171__A1
*243 ANTENNA__181__A
*244 ANTENNA__181__B
*245 ANTENNA__221__A
*246 ANTENNA__221__B
*247 ANTENNA__222__B1
*248 ANTENNA__225__A1
*249 ANTENNA__226__S
*250 ANTENNA__233__C
*251 ANTENNA__234__A
*252 ANTENNA__241__B
*253 ANTENNA__249__A
*254 ANTENNA__259__A
*255 ANTENNA__262__A
*256 ANTENNA__263__A
*257 ANTENNA__264__A
*258 ANTENNA_output14_A
*259 ANTENNA_output18_A
*260 ANTENNA_output19_A
*261 ANTENNA_output20_A
*262 ANTENNA_output25_A
*263 ANTENNA_output28_A
*264 ANTENNA_output29_A
*265 ANTENNA_output30_A
*266 ANTENNA_output31_A
*267 ANTENNA_output33_A
*268 ANTENNA_output34_A
*269 ANTENNA_output35_A
*270 ANTENNA_output36_A
*271 FILLER_0_0_1005
*272 FILLER_0_0_1009
*273 FILLER_0_0_1021
*274 FILLER_0_0_1033
*275 FILLER_0_0_1037
*276 FILLER_0_0_109
*277 FILLER_0_0_113
*278 FILLER_0_0_125
*279 FILLER_0_0_137
*280 FILLER_0_0_141
*281 FILLER_0_0_15
*282 FILLER_0_0_153
*283 FILLER_0_0_165
*284 FILLER_0_0_169
*285 FILLER_0_0_181
*286 FILLER_0_0_193
*287 FILLER_0_0_197
*288 FILLER_0_0_209
*289 FILLER_0_0_221
*290 FILLER_0_0_225
*291 FILLER_0_0_237
*292 FILLER_0_0_249
*293 FILLER_0_0_253
*294 FILLER_0_0_265
*295 FILLER_0_0_27
*296 FILLER_0_0_277
*297 FILLER_0_0_281
*298 FILLER_0_0_29
*299 FILLER_0_0_293
*300 FILLER_0_0_3
*301 FILLER_0_0_305
*302 FILLER_0_0_309
*303 FILLER_0_0_321
*304 FILLER_0_0_333
*305 FILLER_0_0_337
*306 FILLER_0_0_349
*307 FILLER_0_0_361
*308 FILLER_0_0_365
*309 FILLER_0_0_377
*310 FILLER_0_0_389
*311 FILLER_0_0_393
*312 FILLER_0_0_405
*313 FILLER_0_0_41
*314 FILLER_0_0_417
*315 FILLER_0_0_421
*316 FILLER_0_0_433
*317 FILLER_0_0_445
*318 FILLER_0_0_449
*319 FILLER_0_0_461
*320 FILLER_0_0_473
*321 FILLER_0_0_477
*322 FILLER_0_0_489
*323 FILLER_0_0_501
*324 FILLER_0_0_505
*325 FILLER_0_0_517
*326 FILLER_0_0_529
*327 FILLER_0_0_53
*328 FILLER_0_0_533
*329 FILLER_0_0_545
*330 FILLER_0_0_557
*331 FILLER_0_0_561
*332 FILLER_0_0_57
*333 FILLER_0_0_573
*334 FILLER_0_0_585
*335 FILLER_0_0_589
*336 FILLER_0_0_601
*337 FILLER_0_0_613
*338 FILLER_0_0_617
*339 FILLER_0_0_629
*340 FILLER_0_0_641
*341 FILLER_0_0_645
*342 FILLER_0_0_657
*343 FILLER_0_0_669
*344 FILLER_0_0_673
*345 FILLER_0_0_685
*346 FILLER_0_0_69
*347 FILLER_0_0_697
*348 FILLER_0_0_701
*349 FILLER_0_0_713
*350 FILLER_0_0_725
*351 FILLER_0_0_729
*352 FILLER_0_0_741
*353 FILLER_0_0_753
*354 FILLER_0_0_757
*355 FILLER_0_0_769
*356 FILLER_0_0_781
*357 FILLER_0_0_785
*358 FILLER_0_0_797
*359 FILLER_0_0_809
*360 FILLER_0_0_81
*361 FILLER_0_0_813
*362 FILLER_0_0_825
*363 FILLER_0_0_837
*364 FILLER_0_0_841
*365 FILLER_0_0_85
*366 FILLER_0_0_853
*367 FILLER_0_0_865
*368 FILLER_0_0_869
*369 FILLER_0_0_881
*370 FILLER_0_0_893
*371 FILLER_0_0_897
*372 FILLER_0_0_909
*373 FILLER_0_0_921
*374 FILLER_0_0_925
*375 FILLER_0_0_937
*376 FILLER_0_0_949
*377 FILLER_0_0_953
*378 FILLER_0_0_965
*379 FILLER_0_0_97
*380 FILLER_0_0_977
*381 FILLER_0_0_981
*382 FILLER_0_0_993
*383 FILLER_0_100_1005
*384 FILLER_0_100_1017
*385 FILLER_0_100_1029
*386 FILLER_0_100_1035
*387 FILLER_0_100_1037
*388 FILLER_0_100_1049
*389 FILLER_0_100_1057
*390 FILLER_0_100_109
*391 FILLER_0_100_121
*392 FILLER_0_100_133
*393 FILLER_0_100_139
*394 FILLER_0_100_141
*395 FILLER_0_100_15
*396 FILLER_0_100_153
*397 FILLER_0_100_165
*398 FILLER_0_100_177
*399 FILLER_0_100_189
*400 FILLER_0_100_195
*401 FILLER_0_100_197
*402 FILLER_0_100_209
*403 FILLER_0_100_221
*404 FILLER_0_100_233
*405 FILLER_0_100_245
*406 FILLER_0_100_251
*407 FILLER_0_100_253
*408 FILLER_0_100_265
*409 FILLER_0_100_27
*410 FILLER_0_100_277
*411 FILLER_0_100_289
*412 FILLER_0_100_29
*413 FILLER_0_100_3
*414 FILLER_0_100_301
*415 FILLER_0_100_307
*416 FILLER_0_100_309
*417 FILLER_0_100_321
*418 FILLER_0_100_333
*419 FILLER_0_100_345
*420 FILLER_0_100_357
*421 FILLER_0_100_363
*422 FILLER_0_100_365
*423 FILLER_0_100_377
*424 FILLER_0_100_389
*425 FILLER_0_100_401
*426 FILLER_0_100_41
*427 FILLER_0_100_413
*428 FILLER_0_100_419
*429 FILLER_0_100_421
*430 FILLER_0_100_433
*431 FILLER_0_100_445
*432 FILLER_0_100_457
*433 FILLER_0_100_469
*434 FILLER_0_100_475
*435 FILLER_0_100_477
*436 FILLER_0_100_489
*437 FILLER_0_100_501
*438 FILLER_0_100_513
*439 FILLER_0_100_525
*440 FILLER_0_100_53
*441 FILLER_0_100_531
*442 FILLER_0_100_533
*443 FILLER_0_100_545
*444 FILLER_0_100_557
*445 FILLER_0_100_569
*446 FILLER_0_100_581
*447 FILLER_0_100_587
*448 FILLER_0_100_589
*449 FILLER_0_100_601
*450 FILLER_0_100_613
*451 FILLER_0_100_625
*452 FILLER_0_100_637
*453 FILLER_0_100_643
*454 FILLER_0_100_645
*455 FILLER_0_100_65
*456 FILLER_0_100_657
*457 FILLER_0_100_669
*458 FILLER_0_100_681
*459 FILLER_0_100_693
*460 FILLER_0_100_699
*461 FILLER_0_100_701
*462 FILLER_0_100_713
*463 FILLER_0_100_725
*464 FILLER_0_100_737
*465 FILLER_0_100_749
*466 FILLER_0_100_755
*467 FILLER_0_100_757
*468 FILLER_0_100_769
*469 FILLER_0_100_77
*470 FILLER_0_100_781
*471 FILLER_0_100_793
*472 FILLER_0_100_805
*473 FILLER_0_100_811
*474 FILLER_0_100_813
*475 FILLER_0_100_825
*476 FILLER_0_100_83
*477 FILLER_0_100_837
*478 FILLER_0_100_849
*479 FILLER_0_100_85
*480 FILLER_0_100_861
*481 FILLER_0_100_867
*482 FILLER_0_100_869
*483 FILLER_0_100_881
*484 FILLER_0_100_893
*485 FILLER_0_100_905
*486 FILLER_0_100_917
*487 FILLER_0_100_923
*488 FILLER_0_100_925
*489 FILLER_0_100_937
*490 FILLER_0_100_949
*491 FILLER_0_100_961
*492 FILLER_0_100_97
*493 FILLER_0_100_973
*494 FILLER_0_100_979
*495 FILLER_0_100_981
*496 FILLER_0_100_993
*497 FILLER_0_101_1001
*498 FILLER_0_101_1007
*499 FILLER_0_101_1009
*500 FILLER_0_101_1021
*501 FILLER_0_101_1033
*502 FILLER_0_101_1045
*503 FILLER_0_101_105
*504 FILLER_0_101_1057
*505 FILLER_0_101_111
*506 FILLER_0_101_113
*507 FILLER_0_101_125
*508 FILLER_0_101_137
*509 FILLER_0_101_149
*510 FILLER_0_101_15
*511 FILLER_0_101_161
*512 FILLER_0_101_167
*513 FILLER_0_101_169
*514 FILLER_0_101_181
*515 FILLER_0_101_193
*516 FILLER_0_101_205
*517 FILLER_0_101_217
*518 FILLER_0_101_223
*519 FILLER_0_101_225
*520 FILLER_0_101_237
*521 FILLER_0_101_249
*522 FILLER_0_101_261
*523 FILLER_0_101_27
*524 FILLER_0_101_273
*525 FILLER_0_101_279
*526 FILLER_0_101_281
*527 FILLER_0_101_293
*528 FILLER_0_101_3
*529 FILLER_0_101_305
*530 FILLER_0_101_317
*531 FILLER_0_101_329
*532 FILLER_0_101_335
*533 FILLER_0_101_337
*534 FILLER_0_101_349
*535 FILLER_0_101_361
*536 FILLER_0_101_373
*537 FILLER_0_101_385
*538 FILLER_0_101_39
*539 FILLER_0_101_391
*540 FILLER_0_101_393
*541 FILLER_0_101_405
*542 FILLER_0_101_417
*543 FILLER_0_101_429
*544 FILLER_0_101_441
*545 FILLER_0_101_447
*546 FILLER_0_101_449
*547 FILLER_0_101_461
*548 FILLER_0_101_473
*549 FILLER_0_101_485
*550 FILLER_0_101_497
*551 FILLER_0_101_503
*552 FILLER_0_101_505
*553 FILLER_0_101_51
*554 FILLER_0_101_517
*555 FILLER_0_101_529
*556 FILLER_0_101_541
*557 FILLER_0_101_55
*558 FILLER_0_101_553
*559 FILLER_0_101_559
*560 FILLER_0_101_561
*561 FILLER_0_101_57
*562 FILLER_0_101_573
*563 FILLER_0_101_585
*564 FILLER_0_101_597
*565 FILLER_0_101_609
*566 FILLER_0_101_615
*567 FILLER_0_101_617
*568 FILLER_0_101_629
*569 FILLER_0_101_641
*570 FILLER_0_101_653
*571 FILLER_0_101_665
*572 FILLER_0_101_671
*573 FILLER_0_101_673
*574 FILLER_0_101_685
*575 FILLER_0_101_69
*576 FILLER_0_101_697
*577 FILLER_0_101_709
*578 FILLER_0_101_721
*579 FILLER_0_101_727
*580 FILLER_0_101_729
*581 FILLER_0_101_741
*582 FILLER_0_101_753
*583 FILLER_0_101_765
*584 FILLER_0_101_777
*585 FILLER_0_101_783
*586 FILLER_0_101_785
*587 FILLER_0_101_797
*588 FILLER_0_101_809
*589 FILLER_0_101_81
*590 FILLER_0_101_821
*591 FILLER_0_101_833
*592 FILLER_0_101_839
*593 FILLER_0_101_841
*594 FILLER_0_101_853
*595 FILLER_0_101_865
*596 FILLER_0_101_877
*597 FILLER_0_101_889
*598 FILLER_0_101_895
*599 FILLER_0_101_897
*600 FILLER_0_101_909
*601 FILLER_0_101_921
*602 FILLER_0_101_93
*603 FILLER_0_101_933
*604 FILLER_0_101_945
*605 FILLER_0_101_951
*606 FILLER_0_101_953
*607 FILLER_0_101_965
*608 FILLER_0_101_977
*609 FILLER_0_101_989
*610 FILLER_0_102_1005
*611 FILLER_0_102_1017
*612 FILLER_0_102_1029
*613 FILLER_0_102_1035
*614 FILLER_0_102_1037
*615 FILLER_0_102_1049
*616 FILLER_0_102_1057
*617 FILLER_0_102_109
*618 FILLER_0_102_121
*619 FILLER_0_102_133
*620 FILLER_0_102_139
*621 FILLER_0_102_141
*622 FILLER_0_102_153
*623 FILLER_0_102_165
*624 FILLER_0_102_177
*625 FILLER_0_102_18
*626 FILLER_0_102_189
*627 FILLER_0_102_195
*628 FILLER_0_102_197
*629 FILLER_0_102_209
*630 FILLER_0_102_221
*631 FILLER_0_102_233
*632 FILLER_0_102_245
*633 FILLER_0_102_251
*634 FILLER_0_102_253
*635 FILLER_0_102_26
*636 FILLER_0_102_265
*637 FILLER_0_102_277
*638 FILLER_0_102_289
*639 FILLER_0_102_29
*640 FILLER_0_102_301
*641 FILLER_0_102_307
*642 FILLER_0_102_309
*643 FILLER_0_102_321
*644 FILLER_0_102_333
*645 FILLER_0_102_345
*646 FILLER_0_102_357
*647 FILLER_0_102_363
*648 FILLER_0_102_365
*649 FILLER_0_102_377
*650 FILLER_0_102_389
*651 FILLER_0_102_401
*652 FILLER_0_102_41
*653 FILLER_0_102_413
*654 FILLER_0_102_419
*655 FILLER_0_102_421
*656 FILLER_0_102_433
*657 FILLER_0_102_445
*658 FILLER_0_102_457
*659 FILLER_0_102_469
*660 FILLER_0_102_475
*661 FILLER_0_102_477
*662 FILLER_0_102_489
*663 FILLER_0_102_501
*664 FILLER_0_102_513
*665 FILLER_0_102_525
*666 FILLER_0_102_53
*667 FILLER_0_102_531
*668 FILLER_0_102_533
*669 FILLER_0_102_545
*670 FILLER_0_102_557
*671 FILLER_0_102_569
*672 FILLER_0_102_581
*673 FILLER_0_102_587
*674 FILLER_0_102_589
*675 FILLER_0_102_6
*676 FILLER_0_102_601
*677 FILLER_0_102_613
*678 FILLER_0_102_625
*679 FILLER_0_102_637
*680 FILLER_0_102_643
*681 FILLER_0_102_645
*682 FILLER_0_102_65
*683 FILLER_0_102_657
*684 FILLER_0_102_669
*685 FILLER_0_102_681
*686 FILLER_0_102_693
*687 FILLER_0_102_699
*688 FILLER_0_102_701
*689 FILLER_0_102_713
*690 FILLER_0_102_725
*691 FILLER_0_102_737
*692 FILLER_0_102_749
*693 FILLER_0_102_755
*694 FILLER_0_102_757
*695 FILLER_0_102_769
*696 FILLER_0_102_77
*697 FILLER_0_102_781
*698 FILLER_0_102_793
*699 FILLER_0_102_805
*700 FILLER_0_102_811
*701 FILLER_0_102_813
*702 FILLER_0_102_825
*703 FILLER_0_102_83
*704 FILLER_0_102_837
*705 FILLER_0_102_849
*706 FILLER_0_102_85
*707 FILLER_0_102_861
*708 FILLER_0_102_867
*709 FILLER_0_102_869
*710 FILLER_0_102_881
*711 FILLER_0_102_893
*712 FILLER_0_102_905
*713 FILLER_0_102_917
*714 FILLER_0_102_923
*715 FILLER_0_102_925
*716 FILLER_0_102_937
*717 FILLER_0_102_949
*718 FILLER_0_102_961
*719 FILLER_0_102_97
*720 FILLER_0_102_973
*721 FILLER_0_102_979
*722 FILLER_0_102_981
*723 FILLER_0_102_993
*724 FILLER_0_103_1001
*725 FILLER_0_103_1007
*726 FILLER_0_103_1009
*727 FILLER_0_103_1021
*728 FILLER_0_103_1033
*729 FILLER_0_103_1045
*730 FILLER_0_103_105
*731 FILLER_0_103_1057
*732 FILLER_0_103_111
*733 FILLER_0_103_113
*734 FILLER_0_103_125
*735 FILLER_0_103_137
*736 FILLER_0_103_149
*737 FILLER_0_103_15
*738 FILLER_0_103_161
*739 FILLER_0_103_167
*740 FILLER_0_103_169
*741 FILLER_0_103_181
*742 FILLER_0_103_193
*743 FILLER_0_103_205
*744 FILLER_0_103_217
*745 FILLER_0_103_223
*746 FILLER_0_103_225
*747 FILLER_0_103_237
*748 FILLER_0_103_249
*749 FILLER_0_103_261
*750 FILLER_0_103_27
*751 FILLER_0_103_273
*752 FILLER_0_103_279
*753 FILLER_0_103_281
*754 FILLER_0_103_293
*755 FILLER_0_103_3
*756 FILLER_0_103_305
*757 FILLER_0_103_317
*758 FILLER_0_103_329
*759 FILLER_0_103_335
*760 FILLER_0_103_337
*761 FILLER_0_103_349
*762 FILLER_0_103_361
*763 FILLER_0_103_373
*764 FILLER_0_103_385
*765 FILLER_0_103_39
*766 FILLER_0_103_391
*767 FILLER_0_103_393
*768 FILLER_0_103_405
*769 FILLER_0_103_417
*770 FILLER_0_103_429
*771 FILLER_0_103_441
*772 FILLER_0_103_447
*773 FILLER_0_103_449
*774 FILLER_0_103_461
*775 FILLER_0_103_473
*776 FILLER_0_103_485
*777 FILLER_0_103_497
*778 FILLER_0_103_503
*779 FILLER_0_103_505
*780 FILLER_0_103_51
*781 FILLER_0_103_517
*782 FILLER_0_103_529
*783 FILLER_0_103_541
*784 FILLER_0_103_55
*785 FILLER_0_103_553
*786 FILLER_0_103_559
*787 FILLER_0_103_561
*788 FILLER_0_103_57
*789 FILLER_0_103_573
*790 FILLER_0_103_585
*791 FILLER_0_103_597
*792 FILLER_0_103_609
*793 FILLER_0_103_615
*794 FILLER_0_103_617
*795 FILLER_0_103_629
*796 FILLER_0_103_641
*797 FILLER_0_103_653
*798 FILLER_0_103_665
*799 FILLER_0_103_671
*800 FILLER_0_103_673
*801 FILLER_0_103_685
*802 FILLER_0_103_69
*803 FILLER_0_103_697
*804 FILLER_0_103_709
*805 FILLER_0_103_721
*806 FILLER_0_103_727
*807 FILLER_0_103_729
*808 FILLER_0_103_741
*809 FILLER_0_103_753
*810 FILLER_0_103_765
*811 FILLER_0_103_777
*812 FILLER_0_103_783
*813 FILLER_0_103_785
*814 FILLER_0_103_797
*815 FILLER_0_103_809
*816 FILLER_0_103_81
*817 FILLER_0_103_821
*818 FILLER_0_103_833
*819 FILLER_0_103_839
*820 FILLER_0_103_841
*821 FILLER_0_103_853
*822 FILLER_0_103_865
*823 FILLER_0_103_877
*824 FILLER_0_103_889
*825 FILLER_0_103_895
*826 FILLER_0_103_897
*827 FILLER_0_103_909
*828 FILLER_0_103_921
*829 FILLER_0_103_93
*830 FILLER_0_103_933
*831 FILLER_0_103_945
*832 FILLER_0_103_951
*833 FILLER_0_103_953
*834 FILLER_0_103_965
*835 FILLER_0_103_977
*836 FILLER_0_103_989
*837 FILLER_0_104_1005
*838 FILLER_0_104_1017
*839 FILLER_0_104_1029
*840 FILLER_0_104_1035
*841 FILLER_0_104_1037
*842 FILLER_0_104_109
*843 FILLER_0_104_121
*844 FILLER_0_104_133
*845 FILLER_0_104_139
*846 FILLER_0_104_141
*847 FILLER_0_104_15
*848 FILLER_0_104_153
*849 FILLER_0_104_165
*850 FILLER_0_104_177
*851 FILLER_0_104_189
*852 FILLER_0_104_195
*853 FILLER_0_104_197
*854 FILLER_0_104_209
*855 FILLER_0_104_221
*856 FILLER_0_104_233
*857 FILLER_0_104_245
*858 FILLER_0_104_251
*859 FILLER_0_104_253
*860 FILLER_0_104_265
*861 FILLER_0_104_27
*862 FILLER_0_104_277
*863 FILLER_0_104_289
*864 FILLER_0_104_29
*865 FILLER_0_104_3
*866 FILLER_0_104_301
*867 FILLER_0_104_307
*868 FILLER_0_104_309
*869 FILLER_0_104_321
*870 FILLER_0_104_333
*871 FILLER_0_104_345
*872 FILLER_0_104_357
*873 FILLER_0_104_363
*874 FILLER_0_104_365
*875 FILLER_0_104_377
*876 FILLER_0_104_389
*877 FILLER_0_104_401
*878 FILLER_0_104_41
*879 FILLER_0_104_413
*880 FILLER_0_104_419
*881 FILLER_0_104_421
*882 FILLER_0_104_433
*883 FILLER_0_104_445
*884 FILLER_0_104_457
*885 FILLER_0_104_469
*886 FILLER_0_104_475
*887 FILLER_0_104_477
*888 FILLER_0_104_489
*889 FILLER_0_104_501
*890 FILLER_0_104_513
*891 FILLER_0_104_525
*892 FILLER_0_104_53
*893 FILLER_0_104_531
*894 FILLER_0_104_533
*895 FILLER_0_104_545
*896 FILLER_0_104_557
*897 FILLER_0_104_569
*898 FILLER_0_104_581
*899 FILLER_0_104_587
*900 FILLER_0_104_589
*901 FILLER_0_104_601
*902 FILLER_0_104_613
*903 FILLER_0_104_625
*904 FILLER_0_104_637
*905 FILLER_0_104_643
*906 FILLER_0_104_645
*907 FILLER_0_104_65
*908 FILLER_0_104_657
*909 FILLER_0_104_669
*910 FILLER_0_104_681
*911 FILLER_0_104_693
*912 FILLER_0_104_699
*913 FILLER_0_104_701
*914 FILLER_0_104_713
*915 FILLER_0_104_725
*916 FILLER_0_104_737
*917 FILLER_0_104_749
*918 FILLER_0_104_755
*919 FILLER_0_104_757
*920 FILLER_0_104_769
*921 FILLER_0_104_77
*922 FILLER_0_104_781
*923 FILLER_0_104_793
*924 FILLER_0_104_805
*925 FILLER_0_104_811
*926 FILLER_0_104_813
*927 FILLER_0_104_825
*928 FILLER_0_104_83
*929 FILLER_0_104_837
*930 FILLER_0_104_849
*931 FILLER_0_104_85
*932 FILLER_0_104_861
*933 FILLER_0_104_867
*934 FILLER_0_104_869
*935 FILLER_0_104_881
*936 FILLER_0_104_893
*937 FILLER_0_104_905
*938 FILLER_0_104_917
*939 FILLER_0_104_923
*940 FILLER_0_104_925
*941 FILLER_0_104_937
*942 FILLER_0_104_949
*943 FILLER_0_104_961
*944 FILLER_0_104_97
*945 FILLER_0_104_973
*946 FILLER_0_104_979
*947 FILLER_0_104_981
*948 FILLER_0_104_993
*949 FILLER_0_105_1001
*950 FILLER_0_105_1007
*951 FILLER_0_105_1009
*952 FILLER_0_105_1021
*953 FILLER_0_105_1033
*954 FILLER_0_105_1045
*955 FILLER_0_105_105
*956 FILLER_0_105_1057
*957 FILLER_0_105_111
*958 FILLER_0_105_113
*959 FILLER_0_105_125
*960 FILLER_0_105_137
*961 FILLER_0_105_149
*962 FILLER_0_105_15
*963 FILLER_0_105_161
*964 FILLER_0_105_167
*965 FILLER_0_105_169
*966 FILLER_0_105_181
*967 FILLER_0_105_193
*968 FILLER_0_105_205
*969 FILLER_0_105_217
*970 FILLER_0_105_223
*971 FILLER_0_105_225
*972 FILLER_0_105_237
*973 FILLER_0_105_249
*974 FILLER_0_105_261
*975 FILLER_0_105_27
*976 FILLER_0_105_273
*977 FILLER_0_105_279
*978 FILLER_0_105_281
*979 FILLER_0_105_293
*980 FILLER_0_105_3
*981 FILLER_0_105_305
*982 FILLER_0_105_317
*983 FILLER_0_105_329
*984 FILLER_0_105_335
*985 FILLER_0_105_337
*986 FILLER_0_105_349
*987 FILLER_0_105_361
*988 FILLER_0_105_373
*989 FILLER_0_105_385
*990 FILLER_0_105_39
*991 FILLER_0_105_391
*992 FILLER_0_105_393
*993 FILLER_0_105_405
*994 FILLER_0_105_417
*995 FILLER_0_105_429
*996 FILLER_0_105_441
*997 FILLER_0_105_447
*998 FILLER_0_105_449
*999 FILLER_0_105_461
*1000 FILLER_0_105_473
*1001 FILLER_0_105_485
*1002 FILLER_0_105_497
*1003 FILLER_0_105_503
*1004 FILLER_0_105_505
*1005 FILLER_0_105_51
*1006 FILLER_0_105_517
*1007 FILLER_0_105_525
*1008 FILLER_0_105_532
*1009 FILLER_0_105_544
*1010 FILLER_0_105_55
*1011 FILLER_0_105_556
*1012 FILLER_0_105_561
*1013 FILLER_0_105_57
*1014 FILLER_0_105_573
*1015 FILLER_0_105_585
*1016 FILLER_0_105_597
*1017 FILLER_0_105_609
*1018 FILLER_0_105_615
*1019 FILLER_0_105_617
*1020 FILLER_0_105_629
*1021 FILLER_0_105_641
*1022 FILLER_0_105_653
*1023 FILLER_0_105_665
*1024 FILLER_0_105_671
*1025 FILLER_0_105_673
*1026 FILLER_0_105_685
*1027 FILLER_0_105_69
*1028 FILLER_0_105_697
*1029 FILLER_0_105_709
*1030 FILLER_0_105_721
*1031 FILLER_0_105_727
*1032 FILLER_0_105_729
*1033 FILLER_0_105_741
*1034 FILLER_0_105_753
*1035 FILLER_0_105_765
*1036 FILLER_0_105_777
*1037 FILLER_0_105_783
*1038 FILLER_0_105_785
*1039 FILLER_0_105_797
*1040 FILLER_0_105_809
*1041 FILLER_0_105_81
*1042 FILLER_0_105_821
*1043 FILLER_0_105_833
*1044 FILLER_0_105_839
*1045 FILLER_0_105_841
*1046 FILLER_0_105_853
*1047 FILLER_0_105_865
*1048 FILLER_0_105_877
*1049 FILLER_0_105_889
*1050 FILLER_0_105_895
*1051 FILLER_0_105_897
*1052 FILLER_0_105_909
*1053 FILLER_0_105_921
*1054 FILLER_0_105_93
*1055 FILLER_0_105_933
*1056 FILLER_0_105_945
*1057 FILLER_0_105_951
*1058 FILLER_0_105_953
*1059 FILLER_0_105_965
*1060 FILLER_0_105_977
*1061 FILLER_0_105_989
*1062 FILLER_0_106_1005
*1063 FILLER_0_106_1017
*1064 FILLER_0_106_1029
*1065 FILLER_0_106_1035
*1066 FILLER_0_106_1037
*1067 FILLER_0_106_1049
*1068 FILLER_0_106_1057
*1069 FILLER_0_106_109
*1070 FILLER_0_106_121
*1071 FILLER_0_106_133
*1072 FILLER_0_106_139
*1073 FILLER_0_106_141
*1074 FILLER_0_106_15
*1075 FILLER_0_106_153
*1076 FILLER_0_106_165
*1077 FILLER_0_106_177
*1078 FILLER_0_106_189
*1079 FILLER_0_106_195
*1080 FILLER_0_106_197
*1081 FILLER_0_106_209
*1082 FILLER_0_106_221
*1083 FILLER_0_106_233
*1084 FILLER_0_106_245
*1085 FILLER_0_106_251
*1086 FILLER_0_106_253
*1087 FILLER_0_106_265
*1088 FILLER_0_106_27
*1089 FILLER_0_106_277
*1090 FILLER_0_106_289
*1091 FILLER_0_106_29
*1092 FILLER_0_106_3
*1093 FILLER_0_106_301
*1094 FILLER_0_106_307
*1095 FILLER_0_106_309
*1096 FILLER_0_106_321
*1097 FILLER_0_106_333
*1098 FILLER_0_106_345
*1099 FILLER_0_106_357
*1100 FILLER_0_106_363
*1101 FILLER_0_106_365
*1102 FILLER_0_106_377
*1103 FILLER_0_106_389
*1104 FILLER_0_106_401
*1105 FILLER_0_106_41
*1106 FILLER_0_106_413
*1107 FILLER_0_106_419
*1108 FILLER_0_106_421
*1109 FILLER_0_106_433
*1110 FILLER_0_106_445
*1111 FILLER_0_106_457
*1112 FILLER_0_106_469
*1113 FILLER_0_106_475
*1114 FILLER_0_106_477
*1115 FILLER_0_106_489
*1116 FILLER_0_106_501
*1117 FILLER_0_106_513
*1118 FILLER_0_106_525
*1119 FILLER_0_106_53
*1120 FILLER_0_106_531
*1121 FILLER_0_106_533
*1122 FILLER_0_106_545
*1123 FILLER_0_106_557
*1124 FILLER_0_106_569
*1125 FILLER_0_106_581
*1126 FILLER_0_106_587
*1127 FILLER_0_106_589
*1128 FILLER_0_106_601
*1129 FILLER_0_106_613
*1130 FILLER_0_106_625
*1131 FILLER_0_106_637
*1132 FILLER_0_106_643
*1133 FILLER_0_106_645
*1134 FILLER_0_106_65
*1135 FILLER_0_106_657
*1136 FILLER_0_106_669
*1137 FILLER_0_106_681
*1138 FILLER_0_106_693
*1139 FILLER_0_106_699
*1140 FILLER_0_106_701
*1141 FILLER_0_106_713
*1142 FILLER_0_106_725
*1143 FILLER_0_106_737
*1144 FILLER_0_106_749
*1145 FILLER_0_106_755
*1146 FILLER_0_106_757
*1147 FILLER_0_106_769
*1148 FILLER_0_106_77
*1149 FILLER_0_106_781
*1150 FILLER_0_106_793
*1151 FILLER_0_106_805
*1152 FILLER_0_106_811
*1153 FILLER_0_106_813
*1154 FILLER_0_106_825
*1155 FILLER_0_106_83
*1156 FILLER_0_106_837
*1157 FILLER_0_106_849
*1158 FILLER_0_106_85
*1159 FILLER_0_106_861
*1160 FILLER_0_106_867
*1161 FILLER_0_106_869
*1162 FILLER_0_106_881
*1163 FILLER_0_106_893
*1164 FILLER_0_106_905
*1165 FILLER_0_106_917
*1166 FILLER_0_106_923
*1167 FILLER_0_106_925
*1168 FILLER_0_106_937
*1169 FILLER_0_106_949
*1170 FILLER_0_106_961
*1171 FILLER_0_106_97
*1172 FILLER_0_106_973
*1173 FILLER_0_106_979
*1174 FILLER_0_106_981
*1175 FILLER_0_106_993
*1176 FILLER_0_107_1001
*1177 FILLER_0_107_1007
*1178 FILLER_0_107_1009
*1179 FILLER_0_107_1021
*1180 FILLER_0_107_1033
*1181 FILLER_0_107_1045
*1182 FILLER_0_107_105
*1183 FILLER_0_107_1057
*1184 FILLER_0_107_111
*1185 FILLER_0_107_113
*1186 FILLER_0_107_125
*1187 FILLER_0_107_137
*1188 FILLER_0_107_149
*1189 FILLER_0_107_15
*1190 FILLER_0_107_161
*1191 FILLER_0_107_167
*1192 FILLER_0_107_169
*1193 FILLER_0_107_181
*1194 FILLER_0_107_193
*1195 FILLER_0_107_205
*1196 FILLER_0_107_217
*1197 FILLER_0_107_223
*1198 FILLER_0_107_225
*1199 FILLER_0_107_237
*1200 FILLER_0_107_249
*1201 FILLER_0_107_261
*1202 FILLER_0_107_27
*1203 FILLER_0_107_273
*1204 FILLER_0_107_279
*1205 FILLER_0_107_281
*1206 FILLER_0_107_293
*1207 FILLER_0_107_3
*1208 FILLER_0_107_305
*1209 FILLER_0_107_317
*1210 FILLER_0_107_329
*1211 FILLER_0_107_335
*1212 FILLER_0_107_337
*1213 FILLER_0_107_349
*1214 FILLER_0_107_361
*1215 FILLER_0_107_373
*1216 FILLER_0_107_385
*1217 FILLER_0_107_39
*1218 FILLER_0_107_391
*1219 FILLER_0_107_393
*1220 FILLER_0_107_405
*1221 FILLER_0_107_417
*1222 FILLER_0_107_429
*1223 FILLER_0_107_441
*1224 FILLER_0_107_447
*1225 FILLER_0_107_449
*1226 FILLER_0_107_461
*1227 FILLER_0_107_473
*1228 FILLER_0_107_485
*1229 FILLER_0_107_497
*1230 FILLER_0_107_503
*1231 FILLER_0_107_505
*1232 FILLER_0_107_51
*1233 FILLER_0_107_517
*1234 FILLER_0_107_529
*1235 FILLER_0_107_541
*1236 FILLER_0_107_55
*1237 FILLER_0_107_553
*1238 FILLER_0_107_559
*1239 FILLER_0_107_561
*1240 FILLER_0_107_57
*1241 FILLER_0_107_573
*1242 FILLER_0_107_585
*1243 FILLER_0_107_597
*1244 FILLER_0_107_609
*1245 FILLER_0_107_615
*1246 FILLER_0_107_617
*1247 FILLER_0_107_629
*1248 FILLER_0_107_641
*1249 FILLER_0_107_653
*1250 FILLER_0_107_665
*1251 FILLER_0_107_671
*1252 FILLER_0_107_673
*1253 FILLER_0_107_685
*1254 FILLER_0_107_69
*1255 FILLER_0_107_697
*1256 FILLER_0_107_709
*1257 FILLER_0_107_721
*1258 FILLER_0_107_727
*1259 FILLER_0_107_729
*1260 FILLER_0_107_741
*1261 FILLER_0_107_753
*1262 FILLER_0_107_765
*1263 FILLER_0_107_777
*1264 FILLER_0_107_783
*1265 FILLER_0_107_785
*1266 FILLER_0_107_797
*1267 FILLER_0_107_809
*1268 FILLER_0_107_81
*1269 FILLER_0_107_821
*1270 FILLER_0_107_833
*1271 FILLER_0_107_839
*1272 FILLER_0_107_841
*1273 FILLER_0_107_853
*1274 FILLER_0_107_865
*1275 FILLER_0_107_877
*1276 FILLER_0_107_889
*1277 FILLER_0_107_895
*1278 FILLER_0_107_897
*1279 FILLER_0_107_909
*1280 FILLER_0_107_921
*1281 FILLER_0_107_93
*1282 FILLER_0_107_933
*1283 FILLER_0_107_945
*1284 FILLER_0_107_951
*1285 FILLER_0_107_953
*1286 FILLER_0_107_965
*1287 FILLER_0_107_977
*1288 FILLER_0_107_989
*1289 FILLER_0_108_1005
*1290 FILLER_0_108_1017
*1291 FILLER_0_108_1029
*1292 FILLER_0_108_1035
*1293 FILLER_0_108_1037
*1294 FILLER_0_108_1049
*1295 FILLER_0_108_1057
*1296 FILLER_0_108_109
*1297 FILLER_0_108_121
*1298 FILLER_0_108_133
*1299 FILLER_0_108_139
*1300 FILLER_0_108_141
*1301 FILLER_0_108_15
*1302 FILLER_0_108_153
*1303 FILLER_0_108_165
*1304 FILLER_0_108_177
*1305 FILLER_0_108_189
*1306 FILLER_0_108_195
*1307 FILLER_0_108_197
*1308 FILLER_0_108_209
*1309 FILLER_0_108_221
*1310 FILLER_0_108_233
*1311 FILLER_0_108_245
*1312 FILLER_0_108_251
*1313 FILLER_0_108_253
*1314 FILLER_0_108_265
*1315 FILLER_0_108_27
*1316 FILLER_0_108_277
*1317 FILLER_0_108_289
*1318 FILLER_0_108_29
*1319 FILLER_0_108_3
*1320 FILLER_0_108_301
*1321 FILLER_0_108_307
*1322 FILLER_0_108_309
*1323 FILLER_0_108_321
*1324 FILLER_0_108_333
*1325 FILLER_0_108_345
*1326 FILLER_0_108_357
*1327 FILLER_0_108_363
*1328 FILLER_0_108_365
*1329 FILLER_0_108_377
*1330 FILLER_0_108_389
*1331 FILLER_0_108_401
*1332 FILLER_0_108_41
*1333 FILLER_0_108_413
*1334 FILLER_0_108_419
*1335 FILLER_0_108_421
*1336 FILLER_0_108_433
*1337 FILLER_0_108_445
*1338 FILLER_0_108_457
*1339 FILLER_0_108_469
*1340 FILLER_0_108_475
*1341 FILLER_0_108_477
*1342 FILLER_0_108_489
*1343 FILLER_0_108_501
*1344 FILLER_0_108_513
*1345 FILLER_0_108_525
*1346 FILLER_0_108_53
*1347 FILLER_0_108_531
*1348 FILLER_0_108_533
*1349 FILLER_0_108_545
*1350 FILLER_0_108_557
*1351 FILLER_0_108_569
*1352 FILLER_0_108_581
*1353 FILLER_0_108_587
*1354 FILLER_0_108_589
*1355 FILLER_0_108_601
*1356 FILLER_0_108_613
*1357 FILLER_0_108_625
*1358 FILLER_0_108_637
*1359 FILLER_0_108_643
*1360 FILLER_0_108_645
*1361 FILLER_0_108_65
*1362 FILLER_0_108_657
*1363 FILLER_0_108_669
*1364 FILLER_0_108_681
*1365 FILLER_0_108_693
*1366 FILLER_0_108_699
*1367 FILLER_0_108_701
*1368 FILLER_0_108_713
*1369 FILLER_0_108_725
*1370 FILLER_0_108_737
*1371 FILLER_0_108_749
*1372 FILLER_0_108_755
*1373 FILLER_0_108_757
*1374 FILLER_0_108_769
*1375 FILLER_0_108_77
*1376 FILLER_0_108_781
*1377 FILLER_0_108_793
*1378 FILLER_0_108_805
*1379 FILLER_0_108_811
*1380 FILLER_0_108_813
*1381 FILLER_0_108_825
*1382 FILLER_0_108_83
*1383 FILLER_0_108_837
*1384 FILLER_0_108_849
*1385 FILLER_0_108_85
*1386 FILLER_0_108_861
*1387 FILLER_0_108_867
*1388 FILLER_0_108_869
*1389 FILLER_0_108_881
*1390 FILLER_0_108_893
*1391 FILLER_0_108_905
*1392 FILLER_0_108_917
*1393 FILLER_0_108_923
*1394 FILLER_0_108_925
*1395 FILLER_0_108_937
*1396 FILLER_0_108_949
*1397 FILLER_0_108_961
*1398 FILLER_0_108_97
*1399 FILLER_0_108_973
*1400 FILLER_0_108_979
*1401 FILLER_0_108_981
*1402 FILLER_0_108_993
*1403 FILLER_0_109_1001
*1404 FILLER_0_109_1007
*1405 FILLER_0_109_1009
*1406 FILLER_0_109_1021
*1407 FILLER_0_109_1033
*1408 FILLER_0_109_1045
*1409 FILLER_0_109_105
*1410 FILLER_0_109_1057
*1411 FILLER_0_109_111
*1412 FILLER_0_109_113
*1413 FILLER_0_109_125
*1414 FILLER_0_109_137
*1415 FILLER_0_109_149
*1416 FILLER_0_109_15
*1417 FILLER_0_109_161
*1418 FILLER_0_109_167
*1419 FILLER_0_109_169
*1420 FILLER_0_109_181
*1421 FILLER_0_109_193
*1422 FILLER_0_109_205
*1423 FILLER_0_109_217
*1424 FILLER_0_109_223
*1425 FILLER_0_109_225
*1426 FILLER_0_109_237