*SPEF "ieee 1481-1999"
*DESIGN "fragment_fifo_m"
*DATE "11:11:11 Fri 11 11, 1111"
*VENDOR "OpenRCX"
*PROGRAM "Parallel Extraction"
*VERSION "1.0"
*DESIGN_FLOW "NAME_SCOPE LOCAL" "PIN_CAP NONE"
*DIVIDER /
*DELIMITER :
*BUS_DELIMITER []
*T_UNIT 1 NS
*C_UNIT 1 PF
*R_UNIT 1 OHM
*L_UNIT 1 HENRY

*NAME_MAP
*1 clk_i
*2 done_mailing
*3 empty
*4 full
*5 mstream_i[0]
*6 mstream_i[1]
*7 mstream_i[2]
*8 mstream_i[3]
*9 mstream_i[4]
*10 mstream_i[5]
*11 mstream_o[0]
*12 mstream_o[10]
*13 mstream_o[11]
*14 mstream_o[12]
*15 mstream_o[13]
*16 mstream_o[14]
*17 mstream_o[15]
*18 mstream_o[16]
*19 mstream_o[17]
*20 mstream_o[1]
*21 mstream_o[2]
*22 mstream_o[3]
*23 mstream_o[4]
*24 mstream_o[5]
*25 mstream_o[6]
*26 mstream_o[7]
*27 mstream_o[8]
*28 mstream_o[9]
*29 nrst_i
*30 sstream_i[0]
*31 sstream_i[1]
*32 sstream_i[2]
*33 sstream_o
*36 _000_
*37 _001_
*38 _002_
*39 _003_
*40 _004_
*41 _005_
*42 _006_
*43 _007_
*44 _008_
*45 _009_
*46 _010_
*47 _011_
*48 _012_
*49 _013_
*50 _014_
*51 _015_
*52 _016_
*53 _017_
*54 _018_
*55 _019_
*56 _020_
*57 _021_
*58 _022_
*59 _023_
*60 _024_
*61 _025_
*62 _026_
*63 _027_
*64 _028_
*65 _029_
*66 _030_
*67 _031_
*68 _032_
*69 _033_
*70 _034_
*71 _035_
*72 _036_
*73 _037_
*74 _038_
*75 _039_
*76 _040_
*77 _041_
*78 _042_
*79 _043_
*80 _044_
*81 _045_
*82 _046_
*83 _047_
*84 _048_
*85 _049_
*86 _050_
*87 _051_
*88 _052_
*89 _053_
*90 _054_
*91 _055_
*92 _056_
*93 _057_
*94 _058_
*95 _059_
*96 _060_
*97 _061_
*98 _062_
*99 _063_
*100 _064_
*101 _065_
*102 _066_
*103 _067_
*104 _068_
*105 _069_
*106 _070_
*107 _071_
*108 _072_
*109 _073_
*110 _074_
*111 _075_
*112 _076_
*113 _077_
*114 _078_
*115 _079_
*116 _080_
*117 _081_
*118 _082_
*119 _083_
*120 _084_
*121 _085_
*122 _086_
*123 _087_
*124 _088_
*125 _089_
*126 _090_
*127 _091_
*128 _092_
*129 _093_
*130 _094_
*131 _095_
*132 _096_
*133 _097_
*134 _098_
*135 _099_
*136 _100_
*137 _101_
*138 _102_
*139 _103_
*140 _104_
*141 _105_
*142 _106_
*143 _107_
*144 _108_
*145 _109_
*146 _110_
*147 _111_
*148 _112_
*149 _113_
*150 _114_
*151 _115_
*152 _116_
*153 _117_
*154 _118_
*155 _119_
*156 _120_
*157 _121_
*158 _122_
*159 _123_
*160 _124_
*161 _125_
*162 _126_
*163 _127_
*164 _128_
*165 _129_
*166 _130_
*167 _131_
*168 _132_
*169 _133_
*170 _134_
*171 _135_
*172 _136_
*173 _137_
*174 _138_
*175 _139_
*176 _140_
*177 _141_
*178 _142_
*179 _143_
*180 _144_
*181 _145_
*182 _146_
*183 _147_
*184 _148_
*185 _149_
*186 _150_
*187 _151_
*188 _152_
*189 _153_
*190 _154_
*191 _155_
*192 _156_
*193 _157_
*194 _158_
*195 _159_
*196 _160_
*197 _161_
*198 _162_
*199 _163_
*200 _164_
*201 _165_
*202 _166_
*203 _167_
*204 clknet_0_clk_i
*205 clknet_2_0__leaf_clk_i
*206 clknet_2_1__leaf_clk_i
*207 clknet_2_2__leaf_clk_i
*208 clknet_2_3__leaf_clk_i
*209 fifo\.buffer\[0\]
*210 fifo\.buffer\[1\]
*211 fifo\.buffer\[2\]
*212 fifo\.buffer\[3\]
*213 fifo\.buffer\[4\]
*214 fifo\.buffer\[5\]
*215 fifo\.buffer\[6\]
*216 fifo\.buffer\[7\]
*217 fifo\.buffer\[8\]
*218 fifo\.buffer\[9\]
*219 fifo\.head\[0\]
*220 fifo\.head\[1\]
*221 fifo\.head\[2\]
*222 fifo\.head\[3\]
*223 fifo\.head\[4\]
*224 fifo\.last\[0\]
*225 fifo\.last\[1\]
*226 fifo\.last\[2\]
*227 fifo\.last\[3\]
*228 fifo\.last\[4\]
*229 fifo\.last\[5\]
*230 fifo\.last\[6\]
*231 fifo\.last\[7\]
*232 fifo\.last\[8\]
*233 fifo\.last\[9\]
*234 fifo\.size\[0\]
*235 fifo\.size\[1\]
*236 fifo\.size\[2\]
*237 fifo\.size\[3\]
*238 fifo\.size\[4\]
*239 net1
*240 net10
*241 net100
*242 net101
*243 net102
*244 net103
*245 net104
*246 net11
*247 net12
*248 net13
*249 net14
*250 net15
*251 net16
*252 net17
*253 net18
*254 net19
*255 net2
*256 net20
*257 net21
*258 net22
*259 net23
*260 net24
*261 net25
*262 net26
*263 net27
*264 net28
*265 net29
*266 net3
*267 net30
*268 net31
*269 net32
*270 net33
*271 net34
*272 net35
*273 net36
*274 net37
*275 net38
*276 net39
*277 net4
*278 net40
*279 net41
*280 net42
*281 net43
*282 net44
*283 net45
*284 net46
*285 net47
*286 net48
*287 net49
*288 net5
*289 net50
*290 net51
*291 net52
*292 net53
*293 net54
*294 net55
*295 net56
*296 net57
*297 net58
*298 net59
*299 net6
*300 net60
*301 net61
*302 net62
*303 net63
*304 net64
*305 net65
*306 net66
*307 net67
*308 net68
*309 net69
*310 net7
*311 net70
*312 net71
*313 net72
*314 net73
*315 net74
*316 net75
*317 net76
*318 net77
*319 net78
*320 net79
*321 net8
*322 net80
*323 net81
*324 net82
*325 net83
*326 net84
*327 net85
*328 net86
*329 net87
*330 net88
*331 net89
*332 net9
*333 net90
*334 net91
*335 net92
*336 net93
*337 net94
*338 net95
*339 net96
*340 net97
*341 net98
*342 net99
*343 sel_i\[1\]
*344 sel_i\[2\]
*345 sel_i\[3\]
*346 sel_i\[4\]
*347 sel_i\[5\]
*348 ANTENNA_1
*349 ANTENNA__171__A
*350 ANTENNA__174__A
*351 ANTENNA__178__A
*352 ANTENNA__206__A1
*353 ANTENNA__206__A2
*354 ANTENNA__206__B1
*355 ANTENNA__207__A1
*356 ANTENNA__207__B1
*357 ANTENNA__210__A
*358 ANTENNA__210__B
*359 ANTENNA__211__A
*360 ANTENNA__211__B
*361 ANTENNA__213__A2
*362 ANTENNA__217__C
*363 ANTENNA__218__A2
*364 ANTENNA__279__A0
*365 ANTENNA__280__A
*366 ANTENNA__289__A0
*367 ANTENNA__294__A0
*368 ANTENNA__297__A0
*369 ANTENNA__299__A0
*370 ANTENNA__301__A0
*371 ANTENNA__303__A0
*372 ANTENNA__305__A0
*373 ANTENNA__307__A0
*374 ANTENNA__310__A1
*375 ANTENNA__311__A1
*376 ANTENNA__315__A0
*377 ANTENNA__316__A0
*378 ANTENNA__317__A0
*379 ANTENNA__318__A0
*380 ANTENNA__319__A0
*381 ANTENNA__320__A0
*382 ANTENNA__321__A0
*383 ANTENNA__348__SET_B
*384 ANTENNA__349__RESET_B
*385 ANTENNA__350__RESET_B
*386 ANTENNA__351__RESET_B
*387 ANTENNA__352__RESET_B
*388 ANTENNA__353__RESET_B
*389 ANTENNA__367__RESET_B
*390 ANTENNA__368__RESET_B
*391 ANTENNA__369__RESET_B
*392 ANTENNA__370__RESET_B
*393 ANTENNA__373__RESET_B
*394 ANTENNA__374__RESET_B
*395 ANTENNA__375__RESET_B
*396 ANTENNA__376__RESET_B
*397 ANTENNA__377__RESET_B
*398 ANTENNA__378__RESET_B
*399 ANTENNA__379__RESET_B
*400 ANTENNA__380__RESET_B
*401 ANTENNA__381__RESET_B
*402 ANTENNA__382__RESET_B
*403 ANTENNA__383__A
*404 ANTENNA__384__A
*405 ANTENNA__385__A
*406 ANTENNA__386__A
*407 ANTENNA__387__A
*408 ANTENNA__388__A
*409 ANTENNA__389__A
*410 ANTENNA__390__A
*411 ANTENNA__391__A
*412 ANTENNA__392__A
*413 ANTENNA_fanout33_A
*414 ANTENNA_fanout34_A
*415 ANTENNA_hold41_A
*416 ANTENNA_output11_A
*417 ANTENNA_output12_A
*418 ANTENNA_output13_A
*419 ANTENNA_output15_A
*420 ANTENNA_output18_A
*421 ANTENNA_output20_A
*422 ANTENNA_output21_A
*423 ANTENNA_output22_A
*424 ANTENNA_output32_A
*425 FILLER_0_0_1005
*426 FILLER_0_0_1009
*427 FILLER_0_0_1017
*428 FILLER_0_0_1037
*429 FILLER_0_0_1049
*430 FILLER_0_0_1061
*431 FILLER_0_0_1065
*432 FILLER_0_0_1069
*433 FILLER_0_0_1088
*434 FILLER_0_0_109
*435 FILLER_0_0_1093
*436 FILLER_0_0_1105
*437 FILLER_0_0_1117
*438 FILLER_0_0_1137
*439 FILLER_0_0_1145
*440 FILLER_0_0_1149
*441 FILLER_0_0_116
*442 FILLER_0_0_1161
*443 FILLER_0_0_1173
*444 FILLER_0_0_1193
*445 FILLER_0_0_1201
*446 FILLER_0_0_1205
*447 FILLER_0_0_1213
*448 FILLER_0_0_1233
*449 FILLER_0_0_1245
*450 FILLER_0_0_1257
*451 FILLER_0_0_128
*452 FILLER_0_0_141
*453 FILLER_0_0_15
*454 FILLER_0_0_153
*455 FILLER_0_0_159
*456 FILLER_0_0_163
*457 FILLER_0_0_167
*458 FILLER_0_0_169
*459 FILLER_0_0_181
*460 FILLER_0_0_193
*461 FILLER_0_0_197
*462 FILLER_0_0_20
*463 FILLER_0_0_205
*464 FILLER_0_0_211
*465 FILLER_0_0_223
*466 FILLER_0_0_225
*467 FILLER_0_0_237
*468 FILLER_0_0_249
*469 FILLER_0_0_253
*470 FILLER_0_0_259
*471 FILLER_0_0_271
*472 FILLER_0_0_279
*473 FILLER_0_0_281
*474 FILLER_0_0_29
*475 FILLER_0_0_3
*476 FILLER_0_0_307
*477 FILLER_0_0_325
*478 FILLER_0_0_333
*479 FILLER_0_0_337
*480 FILLER_0_0_345
*481 FILLER_0_0_365
*482 FILLER_0_0_376
*483 FILLER_0_0_380
*484 FILLER_0_0_384
*485 FILLER_0_0_388
*486 FILLER_0_0_393
*487 FILLER_0_0_399
*488 FILLER_0_0_41
*489 FILLER_0_0_416
*490 FILLER_0_0_421
*491 FILLER_0_0_425
*492 FILLER_0_0_432
*493 FILLER_0_0_447
*494 FILLER_0_0_465
*495 FILLER_0_0_473
*496 FILLER_0_0_477
*497 FILLER_0_0_489
*498 FILLER_0_0_501
*499 FILLER_0_0_521
*500 FILLER_0_0_529
*501 FILLER_0_0_53
*502 FILLER_0_0_533
*503 FILLER_0_0_541
*504 FILLER_0_0_561
*505 FILLER_0_0_57
*506 FILLER_0_0_573
*507 FILLER_0_0_585
*508 FILLER_0_0_589
*509 FILLER_0_0_608
*510 FILLER_0_0_617
*511 FILLER_0_0_629
*512 FILLER_0_0_63
*513 FILLER_0_0_641
*514 FILLER_0_0_661
*515 FILLER_0_0_669
*516 FILLER_0_0_673
*517 FILLER_0_0_681
*518 FILLER_0_0_701
*519 FILLER_0_0_713
*520 FILLER_0_0_725
*521 FILLER_0_0_729
*522 FILLER_0_0_735
*523 FILLER_0_0_74
*524 FILLER_0_0_752
*525 FILLER_0_0_757
*526 FILLER_0_0_769
*527 FILLER_0_0_781
*528 FILLER_0_0_801
*529 FILLER_0_0_809
*530 FILLER_0_0_813
*531 FILLER_0_0_82
*532 FILLER_0_0_825
*533 FILLER_0_0_837
*534 FILLER_0_0_85
*535 FILLER_0_0_857
*536 FILLER_0_0_865
*537 FILLER_0_0_869
*538 FILLER_0_0_877
*539 FILLER_0_0_897
*540 FILLER_0_0_909
*541 FILLER_0_0_921
*542 FILLER_0_0_925
*543 FILLER_0_0_944
*544 FILLER_0_0_953
*545 FILLER_0_0_965
*546 FILLER_0_0_97
*547 FILLER_0_0_977
*548 FILLER_0_0_997
*549 FILLER_0_100_1005
*550 FILLER_0_100_1017
*551 FILLER_0_100_1029
*552 FILLER_0_100_1035
*553 FILLER_0_100_1037
*554 FILLER_0_100_1049
*555 FILLER_0_100_1061
*556 FILLER_0_100_1073
*557 FILLER_0_100_1085
*558 FILLER_0_100_109
*559 FILLER_0_100_1091
*560 FILLER_0_100_1093
*561 FILLER_0_100_1105
*562 FILLER_0_100_1117
*563 FILLER_0_100_1129
*564 FILLER_0_100_1141
*565 FILLER_0_100_1147
*566 FILLER_0_100_1149
*567 FILLER_0_100_1161
*568 FILLER_0_100_1173
*569 FILLER_0_100_1185
*570 FILLER_0_100_1197
*571 FILLER_0_100_1203
*572 FILLER_0_100_1205
*573 FILLER_0_100_121
*574 FILLER_0_100_1217
*575 FILLER_0_100_1229
*576 FILLER_0_100_1241
*577 FILLER_0_100_1253
*578 FILLER_0_100_1259
*579 FILLER_0_100_1261
*580 FILLER_0_100_1273
*581 FILLER_0_100_133
*582 FILLER_0_100_139
*583 FILLER_0_100_141
*584 FILLER_0_100_15
*585 FILLER_0_100_153
*586 FILLER_0_100_165
*587 FILLER_0_100_177
*588 FILLER_0_100_189
*589 FILLER_0_100_195
*590 FILLER_0_100_197
*591 FILLER_0_100_209
*592 FILLER_0_100_221
*593 FILLER_0_100_233
*594 FILLER_0_100_245
*595 FILLER_0_100_251
*596 FILLER_0_100_253
*597 FILLER_0_100_265
*598 FILLER_0_100_27
*599 FILLER_0_100_277
*600 FILLER_0_100_289
*601 FILLER_0_100_29
*602 FILLER_0_100_3
*603 FILLER_0_100_301
*604 FILLER_0_100_307
*605 FILLER_0_100_309
*606 FILLER_0_100_321
*607 FILLER_0_100_333
*608 FILLER_0_100_345
*609 FILLER_0_100_357
*610 FILLER_0_100_363
*611 FILLER_0_100_365
*612 FILLER_0_100_377
*613 FILLER_0_100_389
*614 FILLER_0_100_401
*615 FILLER_0_100_41
*616 FILLER_0_100_413
*617 FILLER_0_100_419
*618 FILLER_0_100_421
*619 FILLER_0_100_433
*620 FILLER_0_100_445
*621 FILLER_0_100_457
*622 FILLER_0_100_469
*623 FILLER_0_100_475
*624 FILLER_0_100_477
*625 FILLER_0_100_489
*626 FILLER_0_100_501
*627 FILLER_0_100_513
*628 FILLER_0_100_525
*629 FILLER_0_100_53
*630 FILLER_0_100_531
*631 FILLER_0_100_533
*632 FILLER_0_100_545
*633 FILLER_0_100_557
*634 FILLER_0_100_569
*635 FILLER_0_100_581
*636 FILLER_0_100_587
*637 FILLER_0_100_589
*638 FILLER_0_100_601
*639 FILLER_0_100_613
*640 FILLER_0_100_625
*641 FILLER_0_100_637
*642 FILLER_0_100_643
*643 FILLER_0_100_645
*644 FILLER_0_100_65
*645 FILLER_0_100_657
*646 FILLER_0_100_669
*647 FILLER_0_100_681
*648 FILLER_0_100_693
*649 FILLER_0_100_699
*650 FILLER_0_100_701
*651 FILLER_0_100_713
*652 FILLER_0_100_725
*653 FILLER_0_100_737
*654 FILLER_0_100_749
*655 FILLER_0_100_755
*656 FILLER_0_100_757
*657 FILLER_0_100_769
*658 FILLER_0_100_77
*659 FILLER_0_100_781
*660 FILLER_0_100_793
*661 FILLER_0_100_805
*662 FILLER_0_100_811
*663 FILLER_0_100_813
*664 FILLER_0_100_825
*665 FILLER_0_100_83
*666 FILLER_0_100_837
*667 FILLER_0_100_849
*668 FILLER_0_100_85
*669 FILLER_0_100_861
*670 FILLER_0_100_867
*671 FILLER_0_100_869
*672 FILLER_0_100_881
*673 FILLER_0_100_893
*674 FILLER_0_100_905
*675 FILLER_0_100_917
*676 FILLER_0_100_923
*677 FILLER_0_100_925
*678 FILLER_0_100_937
*679 FILLER_0_100_949
*680 FILLER_0_100_961
*681 FILLER_0_100_97
*682 FILLER_0_100_973
*683 FILLER_0_100_979
*684 FILLER_0_100_981
*685 FILLER_0_100_993
*686 FILLER_0_101_1001
*687 FILLER_0_101_1007
*688 FILLER_0_101_1009
*689 FILLER_0_101_1021
*690 FILLER_0_101_1033
*691 FILLER_0_101_1045
*692 FILLER_0_101_105
*693 FILLER_0_101_1057
*694 FILLER_0_101_1063
*695 FILLER_0_101_1065
*696 FILLER_0_101_1077
*697 FILLER_0_101_1089
*698 FILLER_0_101_1101
*699 FILLER_0_101_111
*700 FILLER_0_101_1113
*701 FILLER_0_101_1119
*702 FILLER_0_101_1121
*703 FILLER_0_101_113
*704 FILLER_0_101_1133
*705 FILLER_0_101_1145
*706 FILLER_0_101_1157
*707 FILLER_0_101_1169
*708 FILLER_0_101_1175
*709 FILLER_0_101_1177
*710 FILLER_0_101_1189
*711 FILLER_0_101_1201
*712 FILLER_0_101_1213
*713 FILLER_0_101_1225
*714 FILLER_0_101_1231
*715 FILLER_0_101_1233
*716 FILLER_0_101_1245
*717 FILLER_0_101_125
*718 FILLER_0_101_1257
*719 FILLER_0_101_1269
*720 FILLER_0_101_137
*721 FILLER_0_101_149
*722 FILLER_0_101_15
*723 FILLER_0_101_161
*724 FILLER_0_101_167
*725 FILLER_0_101_169
*726 FILLER_0_101_181
*727 FILLER_0_101_193
*728 FILLER_0_101_205
*729 FILLER_0_101_217
*730 FILLER_0_101_223
*731 FILLER_0_101_225
*732 FILLER_0_101_237
*733 FILLER_0_101_249
*734 FILLER_0_101_261
*735 FILLER_0_101_27
*736 FILLER_0_101_273
*737 FILLER_0_101_279
*738 FILLER_0_101_281
*739 FILLER_0_101_293
*740 FILLER_0_101_3
*741 FILLER_0_101_305
*742 FILLER_0_101_317
*743 FILLER_0_101_329
*744 FILLER_0_101_335
*745 FILLER_0_101_337
*746 FILLER_0_101_349
*747 FILLER_0_101_361
*748 FILLER_0_101_373
*749 FILLER_0_101_385
*750 FILLER_0_101_39
*751 FILLER_0_101_391
*752 FILLER_0_101_393
*753 FILLER_0_101_405
*754 FILLER_0_101_417
*755 FILLER_0_101_429
*756 FILLER_0_101_441
*757 FILLER_0_101_447
*758 FILLER_0_101_449
*759 FILLER_0_101_461
*760 FILLER_0_101_473
*761 FILLER_0_101_485
*762 FILLER_0_101_497
*763 FILLER_0_101_503
*764 FILLER_0_101_505
*765 FILLER_0_101_51
*766 FILLER_0_101_517
*767 FILLER_0_101_529
*768 FILLER_0_101_541
*769 FILLER_0_101_55
*770 FILLER_0_101_553
*771 FILLER_0_101_559
*772 FILLER_0_101_561
*773 FILLER_0_101_57
*774 FILLER_0_101_573
*775 FILLER_0_101_585
*776 FILLER_0_101_597
*777 FILLER_0_101_609
*778 FILLER_0_101_615
*779 FILLER_0_101_617
*780 FILLER_0_101_629
*781 FILLER_0_101_641
*782 FILLER_0_101_653
*783 FILLER_0_101_665
*784 FILLER_0_101_671
*785 FILLER_0_101_673
*786 FILLER_0_101_685
*787 FILLER_0_101_69
*788 FILLER_0_101_697
*789 FILLER_0_101_709
*790 FILLER_0_101_721
*791 FILLER_0_101_727
*792 FILLER_0_101_729
*793 FILLER_0_101_741
*794 FILLER_0_101_753
*795 FILLER_0_101_765
*796 FILLER_0_101_777
*797 FILLER_0_101_783
*798 FILLER_0_101_785
*799 FILLER_0_101_797
*800 FILLER_0_101_809
*801 FILLER_0_101_81
*802 FILLER_0_101_821
*803 FILLER_0_101_833
*804 FILLER_0_101_839
*805 FILLER_0_101_841
*806 FILLER_0_101_853
*807 FILLER_0_101_865
*808 FILLER_0_101_877
*809 FILLER_0_101_889
*810 FILLER_0_101_895
*811 FILLER_0_101_897
*812 FILLER_0_101_909
*813 FILLER_0_101_921
*814 FILLER_0_101_93
*815 FILLER_0_101_933
*816 FILLER_0_101_945
*817 FILLER_0_101_951
*818 FILLER_0_101_953
*819 FILLER_0_101_965
*820 FILLER_0_101_977
*821 FILLER_0_101_989
*822 FILLER_0_102_1005
*823 FILLER_0_102_1017
*824 FILLER_0_102_1029
*825 FILLER_0_102_1035
*826 FILLER_0_102_1037
*827 FILLER_0_102_1049
*828 FILLER_0_102_1061
*829 FILLER_0_102_1073
*830 FILLER_0_102_1085
*831 FILLER_0_102_109
*832 FILLER_0_102_1091
*833 FILLER_0_102_1093
*834 FILLER_0_102_1105
*835 FILLER_0_102_1117
*836 FILLER_0_102_1129
*837 FILLER_0_102_1141
*838 FILLER_0_102_1147
*839 FILLER_0_102_1149
*840 FILLER_0_102_1161
*841 FILLER_0_102_1173
*842 FILLER_0_102_1185
*843 FILLER_0_102_1197
*844 FILLER_0_102_1203
*845 FILLER_0_102_1205
*846 FILLER_0_102_121
*847 FILLER_0_102_1217
*848 FILLER_0_102_1229
*849 FILLER_0_102_1241
*850 FILLER_0_102_1253
*851 FILLER_0_102_1259
*852 FILLER_0_102_1261
*853 FILLER_0_102_1273
*854 FILLER_0_102_133
*855 FILLER_0_102_139
*856 FILLER_0_102_141
*857 FILLER_0_102_15
*858 FILLER_0_102_153
*859 FILLER_0_102_165
*860 FILLER_0_102_177
*861 FILLER_0_102_189
*862 FILLER_0_102_195
*863 FILLER_0_102_197
*864 FILLER_0_102_209
*865 FILLER_0_102_221
*866 FILLER_0_102_233
*867 FILLER_0_102_245
*868 FILLER_0_102_251
*869 FILLER_0_102_253
*870 FILLER_0_102_265
*871 FILLER_0_102_27
*872 FILLER_0_102_277
*873 FILLER_0_102_289
*874 FILLER_0_102_29
*875 FILLER_0_102_3
*876 FILLER_0_102_301
*877 FILLER_0_102_307
*878 FILLER_0_102_309
*879 FILLER_0_102_321
*880 FILLER_0_102_333
*881 FILLER_0_102_345
*882 FILLER_0_102_357
*883 FILLER_0_102_363
*884 FILLER_0_102_365
*885 FILLER_0_102_377
*886 FILLER_0_102_389
*887 FILLER_0_102_401
*888 FILLER_0_102_41
*889 FILLER_0_102_413
*890 FILLER_0_102_419
*891 FILLER_0_102_421
*892 FILLER_0_102_433
*893 FILLER_0_102_445
*894 FILLER_0_102_457
*895 FILLER_0_102_469
*896 FILLER_0_102_475
*897 FILLER_0_102_477
*898 FILLER_0_102_489
*899 FILLER_0_102_501
*900 FILLER_0_102_513
*901 FILLER_0_102_525
*902 FILLER_0_102_53
*903 FILLER_0_102_531
*904 FILLER_0_102_533
*905 FILLER_0_102_545
*906 FILLER_0_102_557
*907 FILLER_0_102_569
*908 FILLER_0_102_581
*909 FILLER_0_102_587
*910 FILLER_0_102_589
*911 FILLER_0_102_601
*912 FILLER_0_102_613
*913 FILLER_0_102_625
*914 FILLER_0_102_637
*915 FILLER_0_102_643
*916 FILLER_0_102_645
*917 FILLER_0_102_65
*918 FILLER_0_102_657
*919 FILLER_0_102_669
*920 FILLER_0_102_681
*921 FILLER_0_102_693
*922 FILLER_0_102_699
*923 FILLER_0_102_701
*924 FILLER_0_102_713
*925 FILLER_0_102_725
*926 FILLER_0_102_737
*927 FILLER_0_102_749
*928 FILLER_0_102_755
*929 FILLER_0_102_757
*930 FILLER_0_102_769
*931 FILLER_0_102_77
*932 FILLER_0_102_781
*933 FILLER_0_102_793
*934 FILLER_0_102_805
*935 FILLER_0_102_811
*936 FILLER_0_102_813
*937 FILLER_0_102_825
*938 FILLER_0_102_83
*939 FILLER_0_102_837
*940 FILLER_0_102_849
*941 FILLER_0_102_85
*942 FILLER_0_102_861
*943 FILLER_0_102_867
*944 FILLER_0_102_869
*945 FILLER_0_102_881
*946 FILLER_0_102_893
*947 FILLER_0_102_905
*948 FILLER_0_102_917
*949 FILLER_0_102_923
*950 FILLER_0_102_925
*951 FILLER_0_102_937
*952 FILLER_0_102_949
*953 FILLER_0_102_961
*954 FILLER_0_102_97
*955 FILLER_0_102_973
*956 FILLER_0_102_979
*957 FILLER_0_102_981
*958 FILLER_0_102_993
*959 FILLER_0_103_1001
*960 FILLER_0_103_1007
*961 FILLER_0_103_1009
*962 FILLER_0_103_1021
*963 FILLER_0_103_1033
*964 FILLER_0_103_1045
*965 FILLER_0_103_105
*966 FILLER_0_103_1057
*967 FILLER_0_103_1063
*968 FILLER_0_103_1065
*969 FILLER_0_103_1077
*970 FILLER_0_103_1089
*971 FILLER_0_103_1101
*972 FILLER_0_103_111
*973 FILLER_0_103_1113
*974 FILLER_0_103_1119
*975 FILLER_0_103_1121
*976 FILLER_0_103_113
*977 FILLER_0_103_1133
*978 FILLER_0_103_1145
*979 FILLER_0_103_1157
*980 FILLER_0_103_1169
*981 FILLER_0_103_1175
*982 FILLER_0_103_1177
*983 FILLER_0_103_1189
*984 FILLER_0_103_1201
*985 FILLER_0_103_1213
*986 FILLER_0_103_1225
*987 FILLER_0_103_1231
*988 FILLER_0_103_1233
*989 FILLER_0_103_1245
*990 FILLER_0_103_125
*991 FILLER_0_103_1257
*992 FILLER_0_103_1269
*993 FILLER_0_103_137
*994 FILLER_0_103_149
*995 FILLER_0_103_15
*996 FILLER_0_103_161
*997 FILLER_0_103_167
*998 FILLER_0_103_169
*999 FILLER_0_103_181
*1000 FILLER_0_103_193
*1001 FILLER_0_103_205
*1002 FILLER_0_103_217
*1003 FILLER_0_103_223
*1004 FILLER_0_103_225
*1005 FILLER_0_103_237
*1006 FILLER_0_103_249
*1007 FILLER_0_103_261
*1008 FILLER_0_103_27
*1009 FILLER_0_103_273
*1010 FILLER_0_103_279
*1011 FILLER_0_103_281
*1012 FILLER_0_103_293
*1013 FILLER_0_103_3
*1014 FILLER_0_103_305
*1015 FILLER_0_103_317
*1016 FILLER_0_103_329
*1017 FILLER_0_103_335
*1018 FILLER_0_103_337
*1019 FILLER_0_103_349
*1020 FILLER_0_103_361
*1021 FILLER_0_103_373
*1022 FILLER_0_103_385
*1023 FILLER_0_103_39
*1024 FILLER_0_103_391
*1025 FILLER_0_103_393
*1026 FILLER_0_103_405
*1027 FILLER_0_103_417
*1028 FILLER_0_103_429
*1029 FILLER_0_103_441
*1030 FILLER_0_103_447
*1031 FILLER_0_103_449
*1032 FILLER_0_103_461
*1033 FILLER_0_103_473
*1034 FILLER_0_103_485
*1035 FILLER_0_103_497
*1036 FILLER_0_103_503
*1037 FILLER_0_103_505
*1038 FILLER_0_103_51
*1039 FILLER_0_103_517
*1040 FILLER_0_103_529
*1041 FILLER_0_103_541
*1042 FILLER_0_103_55
*1043 FILLER_0_103_553
*1044 FILLER_0_103_559
*1045 FILLER_0_103_561
*1046 FILLER_0_103_57
*1047 FILLER_0_103_573
*1048 FILLER_0_103_585
*1049 FILLER_0_103_597
*1050 FILLER_0_103_609
*1051 FILLER_0_103_615
*1052 FILLER_0_103_617
*1053 FILLER_0_103_629
*1054 FILLER_0_103_641
*1055 FILLER_0_103_653
*1056 FILLER_0_103_665
*1057 FILLER_0_103_671
*1058 FILLER_0_103_673
*1059 FILLER_0_103_685
*1060 FILLER_0_103_69
*1061 FILLER_0_103_697
*1062 FILLER_0_103_709
*1063 FILLER_0_103_721
*1064 FILLER_0_103_727
*1065 FILLER_0_103_729
*1066 FILLER_0_103_741
*1067 FILLER_0_103_753
*1068 FILLER_0_103_765
*1069 FILLER_0_103_777
*1070 FILLER_0_103_783
*1071 FILLER_0_103_785
*1072 FILLER_0_103_797
*1073 FILLER_0_103_809
*1074 FILLER_0_103_81
*1075 FILLER_0_103_821
*1076 FILLER_0_103_833
*1077 FILLER_0_103_839
*1078 FILLER_0_103_841
*1079 FILLER_0_103_853
*1080 FILLER_0_103_865
*1081 FILLER_0_103_877
*1082 FILLER_0_103_889
*1083 FILLER_0_103_895
*1084 FILLER_0_103_897
*1085 FILLER_0_103_909
*1086 FILLER_0_103_921
*1087 FILLER_0_103_93
*1088 FILLER_0_103_933
*1089 FILLER_0_103_945
*1090 FILLER_0_103_951
*1091 FILLER_0_103_953
*1092 FILLER_0_103_965
*1093 FILLER_0_103_977
*1094 FILLER_0_103_989
*1095 FILLER_0_104_1005
*1096 FILLER_0_104_1017
*1097 FILLER_0_104_1029
*1098 FILLER_0_104_1035
*1099 FILLER_0_104_1037
*1100 FILLER_0_104_1049
*1101 FILLER_0_104_1061
*1102 FILLER_0_104_1073
*1103 FILLER_0_104_1085
*1104 FILLER_0_104_109
*1105 FILLER_0_104_1091
*1106 FILLER_0_104_1093
*1107 FILLER_0_104_1105
*1108 FILLER_0_104_1117
*1109 FILLER_0_104_1129
*1110 FILLER_0_104_1141
*1111 FILLER_0_104_1147
*1112 FILLER_0_104_1149
*1113 FILLER_0_104_1161
*1114 FILLER_0_104_1173
*1115 FILLER_0_104_1185
*1116 FILLER_0_104_1197
*1117 FILLER_0_104_1203
*1118 FILLER_0_104_1205
*1119 FILLER_0_104_121
*1120 FILLER_0_104_1217
*1121 FILLER_0_104_1229
*1122 FILLER_0_104_1241
*1123 FILLER_0_104_1253
*1124 FILLER_0_104_1259
*1125 FILLER_0_104_1261
*1126 FILLER_0_104_1273
*1127 FILLER_0_104_133
*1128 FILLER_0_104_139
*1129 FILLER_0_104_141
*1130 FILLER_0_104_15
*1131 FILLER_0_104_153
*1132 FILLER_0_104_165
*1133 FILLER_0_104_177
*1134 FILLER_0_104_189
*1135 FILLER_0_104_195
*1136 FILLER_0_104_197
*1137 FILLER_0_104_209
*1138 FILLER_0_104_221
*1139 FILLER_0_104_233
*1140 FILLER_0_104_245
*1141 FILLER_0_104_251
*1142 FILLER_0_104_253
*1143 FILLER_0_104_265
*1144 FILLER_0_104_27
*1145 FILLER_0_104_277
*1146 FILLER_0_104_289
*1147 FILLER_0_104_29
*1148 FILLER_0_104_3
*1149 FILLER_0_104_301
*1150 FILLER_0_104_307
*1151 FILLER_0_104_309
*1152 FILLER_0_104_321
*1153 FILLER_0_104_333
*1154 FILLER_0_104_345
*1155 FILLER_0_104_357
*1156 FILLER_0_104_363
*1157 FILLER_0_104_365
*1158 FILLER_0_104_377
*1159 FILLER_0_104_389
*1160 FILLER_0_104_401
*1161 FILLER_0_104_41
*1162 FILLER_0_104_413
*1163 FILLER_0_104_419
*1164 FILLER_0_104_421
*1165 FILLER_0_104_433
*1166 FILLER_0_104_445
*1167 FILLER_0_104_457
*1168 FILLER_0_104_469
*1169 FILLER_0_104_475
*1170 FILLER_0_104_477
*1171 FILLER_0_104_489
*1172 FILLER_0_104_501
*1173 FILLER_0_104_513
*1174 FILLER_0_104_525
*1175 FILLER_0_104_53
*1176 FILLER_0_104_531
*1177 FILLER_0_104_533
*1178 FILLER_0_104_545
*1179 FILLER_0_104_557
*1180 FILLER_0_104_569
*1181 FILLER_0_104_581
*1182 FILLER_0_104_587
*1183 FILLER_0_104_589
*1184 FILLER_0_104_601
*1185 FILLER_0_104_613
*1186 FILLER_0_104_625
*1187 FILLER_0_104_637
*1188 FILLER_0_104_643
*1189 FILLER_0_104_645
*1190 FILLER_0_104_65
*1191 FILLER_0_104_657
*1192 FILLER_0_104_669
*1193 FILLER_0_104_681
*1194 FILLER_0_104_693
*1195 FILLER_0_104_699
*1196 FILLER_0_104_701
*1197 FILLER_0_104_713
*1198 FILLER_0_104_725
*1199 FILLER_0_104_737
*1200 FILLER_0_104_749
*1201 FILLER_0_104_755
*1202 FILLER_0_104_757
*1203 FILLER_0_104_769
*1204 FILLER_0_104_77
*1205 FILLER_0_104_781
*1206 FILLER_0_104_793
*1207 FILLER_0_104_805
*1208 FILLER_0_104_811
*1209 FILLER_0_104_813
*1210 FILLER_0_104_825
*1211 FILLER_0_104_83
*1212 FILLER_0_104_837
*1213 FILLER_0_104_849
*1214 FILLER_0_104_85
*1215 FILLER_0_104_861
*1216 FILLER_0_104_867
*1217 FILLER_0_104_869
*1218 FILLER_0_104_881
*1219 FILLER_0_104_893
*1220 FILLER_0_104_905
*1221 FILLER_0_104_917
*1222 FILLER_0_104_923
*1223 FILLER_0_104_925
*1224 FILLER_0_104_937
*1225 FILLER_0_104_949
*1226 FILLER_0_104_961
*1227 FILLER_0_104_97
*1228 FILLER_0_104_973
*1229 FILLER_0_104_979
*1230 FILLER_0_104_981
*1231 FILLER_0_104_993
*1232 FILLER_0_105_1001
*1233 FILLER_0_105_1007
*1234 FILLER_0_105_1009
*1235 FILLER_0_105_1021
*1236 FILLER_0_105_1033
*1237 FILLER_0_105_1045
*1238 FILLER_0_105_105
*1239 FILLER_0_105_1057
*1240 FILLER_0_105_1063
*1241 FILLER_0_105_1065
*1242 FILLER_0_105_1077
*1243 FILLER_0_105_1089
*1244 FILLER_0_105_1101
*1245 FILLER_0_105_111
*1246 FILLER_0_105_1113
*1247 FILLER_0_105_1119
*1248 FILLER_0_105_1121
*1249 FILLER_0_105_113
*1250 FILLER_0_105_1133
*1251 FILLER_0_105_1145
*1252 FILLER_0_105_1157
*1253 FILLER_0_105_1169
*1254 FILLER_0_105_1175
*1255 FILLER_0_105_1177
*1256 FILLER_0_105_1189
*1257 FILLER_0_105_1201
*1258 FILLER_0_105_1213
*1259 FILLER_0_105_1225
*1260 FILLER_0_105_1231
*1261 FILLER_0_105_1233
*1262 FILLER_0_105_1245
*1263 FILLER_0_105_125
*1264 FILLER_0_105_1257
*1265 FILLER_0_105_1269
*1266 FILLER_0_105_137
*1267 FILLER_0_105_149
*1268 FILLER_0_105_15
*1269 FILLER_0_105_161
*1270 FILLER_0_105_167
*1271 FILLER_0_105_169
*1272 FILLER_0_105_181
*1273 FILLER_0_105_193
*1274 FILLER_0_105_205
*1275 FILLER_0_105_217
*1276 FILLER_0_105_223
*1277 FILLER_0_105_225
*1278 FILLER_0_105_237
*1279 FILLER_0_105_249
*1280 FILLER_0_105_261
*1281 FILLER_0_105_27
*1282 FILLER_0_105_273
*1283 FILLER_0_105_279
*1284 FILLER_0_105_281
*1285 FILLER_0_105_293
*1286 FILLER_0_105_3
*1287 FILLER_0_105_305
*1288 FILLER_0_105_317
*1289 FILLER_0_105_329
*1290 FILLER_0_105_335
*1291 FILLER_0_105_337
*1292 FILLER_0_105_349
*1293 FILLER_0_105_361
*1294 FILLER_0_105_373
*1295 FILLER_0_105_385
*1296 FILLER_0_105_39
*1297 FILLER_0_105_391
*1298 FILLER_0_105_393
*1299 FILLER_0_105_405
*1300 FILLER_0_105_417
*1301 FILLER_0_105_429
*1302 FILLER_0_105_441
*1303 FILLER_0_105_447
*1304 FILLER_0_105_449
*1305 FILLER_0_105_461
*1306 FILLER_0_105_473
*1307 FILLER_0_105_485
*1308 FILLER_0_105_497
*1309 FILLER_0_105_503
*1310 FILLER_0_105_505
*1311 FILLER_0_105_51
*1312 FILLER_0_105_517
*1313 FILLER_0_105_529
*1314 FILLER_0_105_541
*1315 FILLER_0_105_55
*1316 FILLER_0_105_553
*1317 FILLER_0_105_559
*1318 FILLER_0_105_561
*1319 FILLER_0_105_57
*1320 FILLER_0_105_573
*1321 FILLER_0_105_585
*1322 FILLER_0_105_597
*1323 FILLER_0_105_609
*1324 FILLER_0_105_615
*1325 FILLER_0_105_617
*1326 FILLER_0_105_629
*1327 FILLER_0_105_641
*1328 FILLER_0_105_653
*1329 FILLER_0_105_665
*1330 FILLER_0_105_671
*1331 FILLER_0_105_673
*1332 FILLER_0_105_685
*1333 FILLER_0_105_69
*1334 FILLER_0_105_697
*1335 FILLER_0_105_709
*1336 FILLER_0_105_721
*1337 FILLER_0_105_727
*1338 FILLER_0_105_729
*1339 FILLER_0_105_741
*1340 FILLER_0_105_753
*1341 FILLER_0_105_765
*1342 FILLER_0_105_777
*1343 FILLER_0_105_783
*1344 FILLER_0_105_785
*1345 FILLER_0_105_797
*1346 FILLER_0_105_809
*1347 FILLER_0_105_81
*1348 FILLER_0_105_821
*1349 FILLER_0_105_833
*1350 FILLER_0_105_839
*1351 FILLER_0_105_841
*1352 FILLER_0_105_853
*1353 FILLER_0_105_865
*1354 FILLER_0_105_877
*1355 FILLER_0_105_889
*1356 FILLER_0_105_895
*1357 FILLER_0_105_897
*1358 FILLER_0_105_909
*1359 FILLER_0_105_921
*1360 FILLER_0_105_93
*1361 FILLER_0_105_933
*1362 FILLER_0_105_945
*1363 FILLER_0_105_951
*1364 FILLER_0_105_953
*1365 FILLER_0_105_965
*1366 FILLER_0_105_977
*1367 FILLER_0_105_989
*1368 FILLER_0_106_1005
*1369 FILLER_0_106_1017
*1370 FILLER_0_106_1029
*1371 FILLER_0_106_1035
*1372 FILLER_0_106_1037
*1373 FILLER_0_106_1049
*1374 FILLER_0_106_1061
*1375 FILLER_0_106_1073
*1376 FILLER_0_106_1085
*1377 FILLER_0_106_109
*1378 FILLER_0_106_1091
*1379 FILLER_0_106_1093
*1380 FILLER_0_106_1105
*1381 FILLER_0_106_1117
*1382 FILLER_0_106_1129
*1383 FILLER_0_106_1141
*1384 FILLER_0_106_1147
*1385 FILLER_0_106_1149
*1386 FILLER_0_106_1161
*1387 FILLER_0_106_1173
*1388 FILLER_0_106_1185
*1389 FILLER_0_106_1197
*1390 FILLER_0_106_1203
*1391 FILLER_0_106_1205
*1392 FILLER_0_106_121
*1393 FILLER_0_106_1217
*1394 FILLER_0_106_1229
*1395 FILLER_0_106_1241
*1396 FILLER_0_106_1253
*1397 FILLER_0_106_1259
*1398 FILLER_0_106_1261
*1399 FILLER_0_106_1273
*1400 FILLER_0_106_133
*1401 FILLER_0_106_139
*1402 FILLER_0_106_141
*1403 FILLER_0_106_15
*1404 FILLER_0_106_153
*1405 FILLER_0_106_165
*1406 FILLER_0_106_177
*1407 FILLER_0_106_189
*1408 FILLER_0_106_195
*1409 FILLER_0_106_197
*1410 FILLER_0_106_209
*1411 FILLER_0_106_221
*1412 FILLER_0_106_233
*1413 FILLER_0_106_245
*1414 FILLER_0_106_251
*1415 FILLER_0_106_253
*1416 FILLER_0_106_265
*1417 FILLER_0_106_27
*1418 FILLER_0_106_277
*1419 FILLER_0_106_289
*1420 FILLER_0_106_29
*1421 FILLER_0_106_3
*1422 FILLER_0_106_301
*1423 FILLER_0_106_307
*1424 FILLER_0_106_309
*1425 FILLER_0_106_321
*1426 FILLER_0_106_333
*1427 FILLER_0_106_345
*1428 FILLER_0_106_357
*1429 FILLER_0_106_363
*1430 FILLER_0_106_365
*1431 FILLER_0_106_377
*1432 FILLER_0_106_389
*1433 FILLER_0_106_401
*1434 FILLER_0_106_41
*1435 FILLER_0_106_413
*1436 FILLER_0_106_419
*1437 FILLER_0_106_421
*1438 FILLER_0_106_433
*1439 FILLER_0_106_445
*1440 FILLER_0_106_457
*1441 FILLER_0_106_469
*1442 FILLER_0_106_475
*1443 FILLER_0_106_477
*1444 FILLER_0_106_489
*1445 FILLER_0_106_501
*1446 FILLER_0_106_513
*1447 FILLER_0_106_525
*1448 FILLER_0_106_53
*1449 FILLER_0_106_531
*1450 FILLER_0_106_533
*1451 FILLER_0_106_545
*1452 FILLER_0_106_557
*1453 FILLER_0_106_569
*1454 FILLER_0_106_581
*1455 FILLER_0_106_587
*1456 FILLER_0_106_589
*1457 FILLER_0_106_601
*1458 FILLER_0_106_613
*1459 FILLER_0_106_625
*1460 FILLER_0_106_637
*1461 FILLER_0_106_643
*1462 FILLER_0_106_645
*1463 FILLER_0_106_65
*1464 FILLER_0_106_657
*1465 FILLER_0_106_669
*1466 FILLER_0_106_681
*1467 FILLER_0_106_693
*1468 FILLER_0_106_699
*1469 FILLER_0_106_701
*1470 FILLER_0_106_713
*1471 FILLER_0_106_725
*1472 FILLER_0_106_737
*1473 FILLER_0_106_749
*1474 FILLER_0_106_755
*1475 FILLER_0_106_757
*1476 FILLER_0_106_769
*1477 FILLER_0_106_77
*1478 FILLER_0_106_781
*1479 FILLER_0_106_793