*SPEF "ieee 1481-1999"
*DESIGN "predicate_m"
*DATE "11:11:11 Fri 11 11, 1111"
*VENDOR "OpenRCX"
*PROGRAM "Parallel Extraction"
*VERSION "1.0"
*DESIGN_FLOW "NAME_SCOPE LOCAL" "PIN_CAP NONE"
*DIVIDER /
*DELIMITER :
*BUS_DELIMITER []
*T_UNIT 1 NS
*C_UNIT 1 PF
*R_UNIT 1 OHM
*L_UNIT 1 HENRY

*NAME_MAP
*1 clk_i
*2 equal_o
*3 instruction_predicate_i[0]
*4 instruction_predicate_i[1]
*5 instruction_predicate_i[2]
*6 is_predicable_i
*7 nrst_i
*8 status_o[0]
*9 status_o[1]
*10 status_o[2]
*13 wr_data_i[0]
*14 wr_data_i[1]
*15 wr_data_i[2]
*16 wr_en_i
*17 wr_mask_i[0]
*18 wr_mask_i[1]
*19 wr_mask_i[2]
*20 _00_
*21 _01_
*22 _02_
*23 _03_
*24 _04_
*25 _05_
*26 _06_
*27 _07_
*28 _08_
*29 _09_
*30 clknet_0_clk_i
*31 clknet_1_0__leaf_clk_i
*32 clknet_1_1__leaf_clk_i
*33 net1
*34 net10
*35 net11
*36 net12
*37 net13
*38 net14
*39 net15
*40 net16
*41 net17
*42 net18
*43 net19
*44 net2
*45 net3
*46 net4
*47 net5
*48 net6
*49 net7
*50 net8
*51 net9
*52 ANTENNA__11__B
*53 ANTENNA__12__B
*54 ANTENNA__13__B
*55 ANTENNA__21__RESET_B
*56 ANTENNA__22__RESET_B
*57 ANTENNA__23__RESET_B
*58 ANTENNA_hold1_A
*59 ANTENNA_hold2_A
*60 ANTENNA_hold3_A
*61 ANTENNA_output13_A
*62 ANTENNA_output14_A
*63 ANTENNA_output15_A
*64 ANTENNA_output16_A
*65 FILLER_0_0_109
*66 FILLER_0_0_113
*67 FILLER_0_0_125
*68 FILLER_0_0_137
*69 FILLER_0_0_141
*70 FILLER_0_0_15
*71 FILLER_0_0_153
*72 FILLER_0_0_165
*73 FILLER_0_0_169
*74 FILLER_0_0_181
*75 FILLER_0_0_193
*76 FILLER_0_0_197
*77 FILLER_0_0_209
*78 FILLER_0_0_221
*79 FILLER_0_0_225
*80 FILLER_0_0_237
*81 FILLER_0_0_249
*82 FILLER_0_0_253
*83 FILLER_0_0_265
*84 FILLER_0_0_27
*85 FILLER_0_0_277
*86 FILLER_0_0_281
*87 FILLER_0_0_29
*88 FILLER_0_0_293
*89 FILLER_0_0_3
*90 FILLER_0_0_305
*91 FILLER_0_0_309
*92 FILLER_0_0_321
*93 FILLER_0_0_333
*94 FILLER_0_0_337
*95 FILLER_0_0_349
*96 FILLER_0_0_361
*97 FILLER_0_0_365
*98 FILLER_0_0_377
*99 FILLER_0_0_389
*100 FILLER_0_0_393
*101 FILLER_0_0_399
*102 FILLER_0_0_41
*103 FILLER_0_0_411
*104 FILLER_0_0_419
*105 FILLER_0_0_421
*106 FILLER_0_0_433
*107 FILLER_0_0_445
*108 FILLER_0_0_449
*109 FILLER_0_0_461
*110 FILLER_0_0_473
*111 FILLER_0_0_477
*112 FILLER_0_0_489
*113 FILLER_0_0_501
*114 FILLER_0_0_505
*115 FILLER_0_0_513
*116 FILLER_0_0_53
*117 FILLER_0_0_57
*118 FILLER_0_0_69
*119 FILLER_0_0_81
*120 FILLER_0_0_85
*121 FILLER_0_0_97
*122 FILLER_0_10_109
*123 FILLER_0_10_121
*124 FILLER_0_10_133
*125 FILLER_0_10_139
*126 FILLER_0_10_141
*127 FILLER_0_10_153
*128 FILLER_0_10_165
*129 FILLER_0_10_177
*130 FILLER_0_10_18
*131 FILLER_0_10_189
*132 FILLER_0_10_195
*133 FILLER_0_10_197
*134 FILLER_0_10_209
*135 FILLER_0_10_221
*136 FILLER_0_10_233
*137 FILLER_0_10_245
*138 FILLER_0_10_251
*139 FILLER_0_10_253
*140 FILLER_0_10_26
*141 FILLER_0_10_265
*142 FILLER_0_10_277
*143 FILLER_0_10_289
*144 FILLER_0_10_29
*145 FILLER_0_10_301
*146 FILLER_0_10_307
*147 FILLER_0_10_309
*148 FILLER_0_10_321
*149 FILLER_0_10_333
*150 FILLER_0_10_345
*151 FILLER_0_10_357
*152 FILLER_0_10_363
*153 FILLER_0_10_365
*154 FILLER_0_10_377
*155 FILLER_0_10_389
*156 FILLER_0_10_401
*157 FILLER_0_10_41
*158 FILLER_0_10_413
*159 FILLER_0_10_419
*160 FILLER_0_10_421
*161 FILLER_0_10_433
*162 FILLER_0_10_445
*163 FILLER_0_10_457
*164 FILLER_0_10_469
*165 FILLER_0_10_475
*166 FILLER_0_10_477
*167 FILLER_0_10_489
*168 FILLER_0_10_501
*169 FILLER_0_10_513
*170 FILLER_0_10_53
*171 FILLER_0_10_6
*172 FILLER_0_10_65
*173 FILLER_0_10_77
*174 FILLER_0_10_83
*175 FILLER_0_10_85
*176 FILLER_0_10_97
*177 FILLER_0_11_105
*178 FILLER_0_11_111
*179 FILLER_0_11_113
*180 FILLER_0_11_125
*181 FILLER_0_11_137
*182 FILLER_0_11_149
*183 FILLER_0_11_15
*184 FILLER_0_11_161
*185 FILLER_0_11_167
*186 FILLER_0_11_169
*187 FILLER_0_11_181
*188 FILLER_0_11_193
*189 FILLER_0_11_205
*190 FILLER_0_11_217
*191 FILLER_0_11_223
*192 FILLER_0_11_225
*193 FILLER_0_11_237
*194 FILLER_0_11_249
*195 FILLER_0_11_261
*196 FILLER_0_11_27
*197 FILLER_0_11_273
*198 FILLER_0_11_279
*199 FILLER_0_11_281
*200 FILLER_0_11_293
*201 FILLER_0_11_3
*202 FILLER_0_11_305
*203 FILLER_0_11_317
*204 FILLER_0_11_329
*205 FILLER_0_11_335
*206 FILLER_0_11_337
*207 FILLER_0_11_349
*208 FILLER_0_11_361
*209 FILLER_0_11_373
*210 FILLER_0_11_385
*211 FILLER_0_11_39
*212 FILLER_0_11_391
*213 FILLER_0_11_393
*214 FILLER_0_11_405
*215 FILLER_0_11_417
*216 FILLER_0_11_429
*217 FILLER_0_11_441
*218 FILLER_0_11_447
*219 FILLER_0_11_449
*220 FILLER_0_11_461
*221 FILLER_0_11_473
*222 FILLER_0_11_485
*223 FILLER_0_11_497
*224 FILLER_0_11_503
*225 FILLER_0_11_505
*226 FILLER_0_11_51
*227 FILLER_0_11_513
*228 FILLER_0_11_55
*229 FILLER_0_11_57
*230 FILLER_0_11_69
*231 FILLER_0_11_81
*232 FILLER_0_11_93
*233 FILLER_0_12_109
*234 FILLER_0_12_121
*235 FILLER_0_12_133
*236 FILLER_0_12_139
*237 FILLER_0_12_141
*238 FILLER_0_12_15
*239 FILLER_0_12_153
*240 FILLER_0_12_165
*241 FILLER_0_12_177
*242 FILLER_0_12_189
*243 FILLER_0_12_195
*244 FILLER_0_12_197
*245 FILLER_0_12_209
*246 FILLER_0_12_221
*247 FILLER_0_12_233
*248 FILLER_0_12_245
*249 FILLER_0_12_251
*250 FILLER_0_12_253
*251 FILLER_0_12_265
*252 FILLER_0_12_27
*253 FILLER_0_12_277
*254 FILLER_0_12_289
*255 FILLER_0_12_29
*256 FILLER_0_12_3
*257 FILLER_0_12_301
*258 FILLER_0_12_307
*259 FILLER_0_12_309
*260 FILLER_0_12_321
*261 FILLER_0_12_333
*262 FILLER_0_12_345
*263 FILLER_0_12_357
*264 FILLER_0_12_363
*265 FILLER_0_12_365
*266 FILLER_0_12_377
*267 FILLER_0_12_389
*268 FILLER_0_12_401
*269 FILLER_0_12_41
*270 FILLER_0_12_413
*271 FILLER_0_12_419
*272 FILLER_0_12_421
*273 FILLER_0_12_433
*274 FILLER_0_12_445
*275 FILLER_0_12_457
*276 FILLER_0_12_469
*277 FILLER_0_12_475
*278 FILLER_0_12_477
*279 FILLER_0_12_489
*280 FILLER_0_12_501
*281 FILLER_0_12_513
*282 FILLER_0_12_53
*283 FILLER_0_12_65
*284 FILLER_0_12_77
*285 FILLER_0_12_83
*286 FILLER_0_12_85
*287 FILLER_0_12_97
*288 FILLER_0_13_105
*289 FILLER_0_13_111
*290 FILLER_0_13_113
*291 FILLER_0_13_125
*292 FILLER_0_13_137
*293 FILLER_0_13_149
*294 FILLER_0_13_15
*295 FILLER_0_13_161
*296 FILLER_0_13_167
*297 FILLER_0_13_169
*298 FILLER_0_13_181
*299 FILLER_0_13_193
*300 FILLER_0_13_205
*301 FILLER_0_13_217
*302 FILLER_0_13_223
*303 FILLER_0_13_225
*304 FILLER_0_13_237
*305 FILLER_0_13_249
*306 FILLER_0_13_261
*307 FILLER_0_13_27
*308 FILLER_0_13_273
*309 FILLER_0_13_279
*310 FILLER_0_13_281
*311 FILLER_0_13_293
*312 FILLER_0_13_3
*313 FILLER_0_13_305
*314 FILLER_0_13_317
*315 FILLER_0_13_329
*316 FILLER_0_13_335
*317 FILLER_0_13_337
*318 FILLER_0_13_349
*319 FILLER_0_13_361
*320 FILLER_0_13_373
*321 FILLER_0_13_385
*322 FILLER_0_13_39
*323 FILLER_0_13_391
*324 FILLER_0_13_393
*325 FILLER_0_13_405
*326 FILLER_0_13_417
*327 FILLER_0_13_429
*328 FILLER_0_13_441
*329 FILLER_0_13_447
*330 FILLER_0_13_449
*331 FILLER_0_13_461
*332 FILLER_0_13_473
*333 FILLER_0_13_485
*334 FILLER_0_13_497
*335 FILLER_0_13_503
*336 FILLER_0_13_505
*337 FILLER_0_13_51
*338 FILLER_0_13_513
*339 FILLER_0_13_55
*340 FILLER_0_13_57
*341 FILLER_0_13_69
*342 FILLER_0_13_81
*343 FILLER_0_13_93
*344 FILLER_0_14_109
*345 FILLER_0_14_121
*346 FILLER_0_14_133
*347 FILLER_0_14_139
*348 FILLER_0_14_141
*349 FILLER_0_14_15
*350 FILLER_0_14_153
*351 FILLER_0_14_165
*352 FILLER_0_14_177
*353 FILLER_0_14_189
*354 FILLER_0_14_195
*355 FILLER_0_14_197
*356 FILLER_0_14_209
*357 FILLER_0_14_221
*358 FILLER_0_14_233
*359 FILLER_0_14_245
*360 FILLER_0_14_251
*361 FILLER_0_14_253
*362 FILLER_0_14_265
*363 FILLER_0_14_27
*364 FILLER_0_14_277
*365 FILLER_0_14_289
*366 FILLER_0_14_29
*367 FILLER_0_14_3
*368 FILLER_0_14_301
*369 FILLER_0_14_307
*370 FILLER_0_14_309
*371 FILLER_0_14_321
*372 FILLER_0_14_333
*373 FILLER_0_14_345
*374 FILLER_0_14_357
*375 FILLER_0_14_363
*376 FILLER_0_14_365
*377 FILLER_0_14_377
*378 FILLER_0_14_389
*379 FILLER_0_14_401
*380 FILLER_0_14_41
*381 FILLER_0_14_413
*382 FILLER_0_14_419
*383 FILLER_0_14_421
*384 FILLER_0_14_433
*385 FILLER_0_14_445
*386 FILLER_0_14_457
*387 FILLER_0_14_469
*388 FILLER_0_14_475
*389 FILLER_0_14_477
*390 FILLER_0_14_489
*391 FILLER_0_14_501
*392 FILLER_0_14_513
*393 FILLER_0_14_53
*394 FILLER_0_14_65
*395 FILLER_0_14_77
*396 FILLER_0_14_83
*397 FILLER_0_14_85
*398 FILLER_0_14_97
*399 FILLER_0_15_105
*400 FILLER_0_15_111
*401 FILLER_0_15_113
*402 FILLER_0_15_125
*403 FILLER_0_15_137
*404 FILLER_0_15_149
*405 FILLER_0_15_15
*406 FILLER_0_15_161
*407 FILLER_0_15_167
*408 FILLER_0_15_169
*409 FILLER_0_15_181
*410 FILLER_0_15_193
*411 FILLER_0_15_205
*412 FILLER_0_15_217
*413 FILLER_0_15_223
*414 FILLER_0_15_225
*415 FILLER_0_15_237
*416 FILLER_0_15_249
*417 FILLER_0_15_261
*418 FILLER_0_15_27
*419 FILLER_0_15_273
*420 FILLER_0_15_279
*421 FILLER_0_15_281
*422 FILLER_0_15_293
*423 FILLER_0_15_3
*424 FILLER_0_15_305
*425 FILLER_0_15_317
*426 FILLER_0_15_329
*427 FILLER_0_15_335
*428 FILLER_0_15_337
*429 FILLER_0_15_349
*430 FILLER_0_15_361
*431 FILLER_0_15_373
*432 FILLER_0_15_385
*433 FILLER_0_15_39
*434 FILLER_0_15_391
*435 FILLER_0_15_393
*436 FILLER_0_15_405
*437 FILLER_0_15_417
*438 FILLER_0_15_429
*439 FILLER_0_15_441
*440 FILLER_0_15_447
*441 FILLER_0_15_449
*442 FILLER_0_15_461
*443 FILLER_0_15_473
*444 FILLER_0_15_485
*445 FILLER_0_15_497
*446 FILLER_0_15_503
*447 FILLER_0_15_505
*448 FILLER_0_15_51
*449 FILLER_0_15_513
*450 FILLER_0_15_55
*451 FILLER_0_15_57
*452 FILLER_0_15_69
*453 FILLER_0_15_81
*454 FILLER_0_15_93
*455 FILLER_0_16_109
*456 FILLER_0_16_121
*457 FILLER_0_16_133
*458 FILLER_0_16_139
*459 FILLER_0_16_141
*460 FILLER_0_16_15
*461 FILLER_0_16_153
*462 FILLER_0_16_165
*463 FILLER_0_16_177
*464 FILLER_0_16_189
*465 FILLER_0_16_195
*466 FILLER_0_16_197
*467 FILLER_0_16_209
*468 FILLER_0_16_221
*469 FILLER_0_16_233
*470 FILLER_0_16_245
*471 FILLER_0_16_251
*472 FILLER_0_16_253
*473 FILLER_0_16_265
*474 FILLER_0_16_27
*475 FILLER_0_16_277
*476 FILLER_0_16_289
*477 FILLER_0_16_29
*478 FILLER_0_16_3
*479 FILLER_0_16_301
*480 FILLER_0_16_307
*481 FILLER_0_16_309
*482 FILLER_0_16_321
*483 FILLER_0_16_333
*484 FILLER_0_16_345
*485 FILLER_0_16_357
*486 FILLER_0_16_363
*487 FILLER_0_16_365
*488 FILLER_0_16_377
*489 FILLER_0_16_389
*490 FILLER_0_16_401
*491 FILLER_0_16_41
*492 FILLER_0_16_413
*493 FILLER_0_16_419
*494 FILLER_0_16_421
*495 FILLER_0_16_433
*496 FILLER_0_16_445
*497 FILLER_0_16_457
*498 FILLER_0_16_469
*499 FILLER_0_16_475
*500 FILLER_0_16_477
*501 FILLER_0_16_489
*502 FILLER_0_16_501
*503 FILLER_0_16_513
*504 FILLER_0_16_53
*505 FILLER_0_16_65
*506 FILLER_0_16_77
*507 FILLER_0_16_83
*508 FILLER_0_16_85
*509 FILLER_0_16_97
*510 FILLER_0_17_105
*511 FILLER_0_17_111
*512 FILLER_0_17_113
*513 FILLER_0_17_125
*514 FILLER_0_17_137
*515 FILLER_0_17_149
*516 FILLER_0_17_15
*517 FILLER_0_17_161
*518 FILLER_0_17_167
*519 FILLER_0_17_169
*520 FILLER_0_17_181
*521 FILLER_0_17_193
*522 FILLER_0_17_205
*523 FILLER_0_17_217
*524 FILLER_0_17_223
*525 FILLER_0_17_225
*526 FILLER_0_17_237
*527 FILLER_0_17_249
*528 FILLER_0_17_261
*529 FILLER_0_17_27
*530 FILLER_0_17_273
*531 FILLER_0_17_279
*532 FILLER_0_17_281
*533 FILLER_0_17_293
*534 FILLER_0_17_3
*535 FILLER_0_17_305
*536 FILLER_0_17_317
*537 FILLER_0_17_329
*538 FILLER_0_17_335
*539 FILLER_0_17_337
*540 FILLER_0_17_349
*541 FILLER_0_17_361
*542 FILLER_0_17_373
*543 FILLER_0_17_385
*544 FILLER_0_17_39
*545 FILLER_0_17_391
*546 FILLER_0_17_393
*547 FILLER_0_17_405
*548 FILLER_0_17_417
*549 FILLER_0_17_429
*550 FILLER_0_17_441
*551 FILLER_0_17_447
*552 FILLER_0_17_449
*553 FILLER_0_17_461
*554 FILLER_0_17_473
*555 FILLER_0_17_485
*556 FILLER_0_17_497
*557 FILLER_0_17_503
*558 FILLER_0_17_505
*559 FILLER_0_17_51
*560 FILLER_0_17_513
*561 FILLER_0_17_55
*562 FILLER_0_17_57
*563 FILLER_0_17_69
*564 FILLER_0_17_81
*565 FILLER_0_17_93
*566 FILLER_0_18_109
*567 FILLER_0_18_121
*568 FILLER_0_18_133
*569 FILLER_0_18_139
*570 FILLER_0_18_141
*571 FILLER_0_18_153
*572 FILLER_0_18_165
*573 FILLER_0_18_177
*574 FILLER_0_18_18
*575 FILLER_0_18_189
*576 FILLER_0_18_195
*577 FILLER_0_18_197
*578 FILLER_0_18_209
*579 FILLER_0_18_221
*580 FILLER_0_18_233
*581 FILLER_0_18_245
*582 FILLER_0_18_251
*583 FILLER_0_18_253
*584 FILLER_0_18_26
*585 FILLER_0_18_265
*586 FILLER_0_18_277
*587 FILLER_0_18_289
*588 FILLER_0_18_29
*589 FILLER_0_18_301
*590 FILLER_0_18_307
*591 FILLER_0_18_309
*592 FILLER_0_18_321
*593 FILLER_0_18_333
*594 FILLER_0_18_345
*595 FILLER_0_18_357
*596 FILLER_0_18_363
*597 FILLER_0_18_365
*598 FILLER_0_18_377
*599 FILLER_0_18_389
*600 FILLER_0_18_401
*601 FILLER_0_18_41
*602 FILLER_0_18_413
*603 FILLER_0_18_419
*604 FILLER_0_18_421
*605 FILLER_0_18_433
*606 FILLER_0_18_445
*607 FILLER_0_18_457
*608 FILLER_0_18_469
*609 FILLER_0_18_475
*610 FILLER_0_18_477
*611 FILLER_0_18_489
*612 FILLER_0_18_501
*613 FILLER_0_18_513
*614 FILLER_0_18_53
*615 FILLER_0_18_6
*616 FILLER_0_18_65
*617 FILLER_0_18_77
*618 FILLER_0_18_83
*619 FILLER_0_18_85
*620 FILLER_0_18_97
*621 FILLER_0_19_105
*622 FILLER_0_19_111
*623 FILLER_0_19_113
*624 FILLER_0_19_125
*625 FILLER_0_19_137
*626 FILLER_0_19_149
*627 FILLER_0_19_15
*628 FILLER_0_19_161
*629 FILLER_0_19_167
*630 FILLER_0_19_169
*631 FILLER_0_19_181
*632 FILLER_0_19_193
*633 FILLER_0_19_205
*634 FILLER_0_19_217
*635 FILLER_0_19_223
*636 FILLER_0_19_225
*637 FILLER_0_19_237
*638 FILLER_0_19_249
*639 FILLER_0_19_261
*640 FILLER_0_19_27
*641 FILLER_0_19_273
*642 FILLER_0_19_279
*643 FILLER_0_19_281
*644 FILLER_0_19_293
*645 FILLER_0_19_3
*646 FILLER_0_19_305
*647 FILLER_0_19_317
*648 FILLER_0_19_329
*649 FILLER_0_19_335
*650 FILLER_0_19_337
*651 FILLER_0_19_349
*652 FILLER_0_19_361
*653 FILLER_0_19_373
*654 FILLER_0_19_385
*655 FILLER_0_19_39
*656 FILLER_0_19_391
*657 FILLER_0_19_393
*658 FILLER_0_19_405
*659 FILLER_0_19_417
*660 FILLER_0_19_429
*661 FILLER_0_19_441
*662 FILLER_0_19_447
*663 FILLER_0_19_449
*664 FILLER_0_19_461
*665 FILLER_0_19_473
*666 FILLER_0_19_485
*667 FILLER_0_19_497
*668 FILLER_0_19_503
*669 FILLER_0_19_505
*670 FILLER_0_19_51
*671 FILLER_0_19_513
*672 FILLER_0_19_55
*673 FILLER_0_19_57
*674 FILLER_0_19_69
*675 FILLER_0_19_81
*676 FILLER_0_19_93
*677 FILLER_0_1_105
*678 FILLER_0_1_111
*679 FILLER_0_1_113
*680 FILLER_0_1_125
*681 FILLER_0_1_137
*682 FILLER_0_1_149
*683 FILLER_0_1_15
*684 FILLER_0_1_161
*685 FILLER_0_1_167
*686 FILLER_0_1_169
*687 FILLER_0_1_181
*688 FILLER_0_1_193
*689 FILLER_0_1_205
*690 FILLER_0_1_217
*691 FILLER_0_1_223
*692 FILLER_0_1_225
*693 FILLER_0_1_237
*694 FILLER_0_1_249
*695 FILLER_0_1_261
*696 FILLER_0_1_27
*697 FILLER_0_1_273
*698 FILLER_0_1_279
*699 FILLER_0_1_281
*700 FILLER_0_1_293
*701 FILLER_0_1_3
*702 FILLER_0_1_305
*703 FILLER_0_1_317
*704 FILLER_0_1_329
*705 FILLER_0_1_335
*706 FILLER_0_1_337
*707 FILLER_0_1_349
*708 FILLER_0_1_361
*709 FILLER_0_1_373
*710 FILLER_0_1_385
*711 FILLER_0_1_39
*712 FILLER_0_1_391
*713 FILLER_0_1_393
*714 FILLER_0_1_405
*715 FILLER_0_1_417
*716 FILLER_0_1_429
*717 FILLER_0_1_441
*718 FILLER_0_1_447
*719 FILLER_0_1_449
*720 FILLER_0_1_461
*721 FILLER_0_1_473
*722 FILLER_0_1_485
*723 FILLER_0_1_497
*724 FILLER_0_1_503
*725 FILLER_0_1_505
*726 FILLER_0_1_51
*727 FILLER_0_1_513
*728 FILLER_0_1_55
*729 FILLER_0_1_57
*730 FILLER_0_1_69
*731 FILLER_0_1_81
*732 FILLER_0_1_93
*733 FILLER_0_20_109
*734 FILLER_0_20_121
*735 FILLER_0_20_133
*736 FILLER_0_20_139
*737 FILLER_0_20_141
*738 FILLER_0_20_15
*739 FILLER_0_20_153
*740 FILLER_0_20_165
*741 FILLER_0_20_177
*742 FILLER_0_20_189
*743 FILLER_0_20_195
*744 FILLER_0_20_197
*745 FILLER_0_20_209
*746 FILLER_0_20_221
*747 FILLER_0_20_233
*748 FILLER_0_20_245
*749 FILLER_0_20_251
*750 FILLER_0_20_253
*751 FILLER_0_20_265
*752 FILLER_0_20_27
*753 FILLER_0_20_277
*754 FILLER_0_20_289
*755 FILLER_0_20_29
*756 FILLER_0_20_3
*757 FILLER_0_20_301
*758 FILLER_0_20_307
*759 FILLER_0_20_309
*760 FILLER_0_20_321
*761 FILLER_0_20_333
*762 FILLER_0_20_345
*763 FILLER_0_20_357
*764 FILLER_0_20_363
*765 FILLER_0_20_365
*766 FILLER_0_20_377
*767 FILLER_0_20_389
*768 FILLER_0_20_401
*769 FILLER_0_20_41
*770 FILLER_0_20_413
*771 FILLER_0_20_419
*772 FILLER_0_20_421
*773 FILLER_0_20_433
*774 FILLER_0_20_445
*775 FILLER_0_20_457
*776 FILLER_0_20_469
*777 FILLER_0_20_475
*778 FILLER_0_20_477
*779 FILLER_0_20_489
*780 FILLER_0_20_501
*781 FILLER_0_20_513
*782 FILLER_0_20_53
*783 FILLER_0_20_65
*784 FILLER_0_20_77
*785 FILLER_0_20_83
*786 FILLER_0_20_85
*787 FILLER_0_20_97
*788 FILLER_0_21_105
*789 FILLER_0_21_111
*790 FILLER_0_21_113
*791 FILLER_0_21_125
*792 FILLER_0_21_137
*793 FILLER_0_21_149
*794 FILLER_0_21_15
*795 FILLER_0_21_161
*796 FILLER_0_21_167
*797 FILLER_0_21_169
*798 FILLER_0_21_181
*799 FILLER_0_21_193
*800 FILLER_0_21_205
*801 FILLER_0_21_217
*802 FILLER_0_21_223
*803 FILLER_0_21_225
*804 FILLER_0_21_237
*805 FILLER_0_21_249
*806 FILLER_0_21_261
*807 FILLER_0_21_27
*808 FILLER_0_21_273
*809 FILLER_0_21_279
*810 FILLER_0_21_281
*811 FILLER_0_21_293
*812 FILLER_0_21_3
*813 FILLER_0_21_305
*814 FILLER_0_21_317
*815 FILLER_0_21_329
*816 FILLER_0_21_335
*817 FILLER_0_21_337
*818 FILLER_0_21_349
*819 FILLER_0_21_361
*820 FILLER_0_21_373
*821 FILLER_0_21_385
*822 FILLER_0_21_39
*823 FILLER_0_21_391
*824 FILLER_0_21_393
*825 FILLER_0_21_405
*826 FILLER_0_21_417
*827 FILLER_0_21_429
*828 FILLER_0_21_441
*829 FILLER_0_21_447
*830 FILLER_0_21_449
*831 FILLER_0_21_461
*832 FILLER_0_21_473
*833 FILLER_0_21_485
*834 FILLER_0_21_497
*835 FILLER_0_21_503
*836 FILLER_0_21_505
*837 FILLER_0_21_51
*838 FILLER_0_21_513
*839 FILLER_0_21_55
*840 FILLER_0_21_57
*841 FILLER_0_21_69
*842 FILLER_0_21_81
*843 FILLER_0_21_93
*844 FILLER_0_22_109
*845 FILLER_0_22_121
*846 FILLER_0_22_133
*847 FILLER_0_22_139
*848 FILLER_0_22_141
*849 FILLER_0_22_15
*850 FILLER_0_22_153
*851 FILLER_0_22_165
*852 FILLER_0_22_177
*853 FILLER_0_22_189
*854 FILLER_0_22_195
*855 FILLER_0_22_197
*856 FILLER_0_22_209
*857 FILLER_0_22_221
*858 FILLER_0_22_233
*859 FILLER_0_22_245
*860 FILLER_0_22_251
*861 FILLER_0_22_253
*862 FILLER_0_22_265
*863 FILLER_0_22_27
*864 FILLER_0_22_277
*865 FILLER_0_22_289
*866 FILLER_0_22_29
*867 FILLER_0_22_3
*868 FILLER_0_22_301
*869 FILLER_0_22_307
*870 FILLER_0_22_309
*871 FILLER_0_22_321
*872 FILLER_0_22_333
*873 FILLER_0_22_345
*874 FILLER_0_22_357
*875 FILLER_0_22_363
*876 FILLER_0_22_365
*877 FILLER_0_22_377
*878 FILLER_0_22_389
*879 FILLER_0_22_401
*880 FILLER_0_22_41
*881 FILLER_0_22_413
*882 FILLER_0_22_419
*883 FILLER_0_22_421
*884 FILLER_0_22_433
*885 FILLER_0_22_445
*886 FILLER_0_22_457
*887 FILLER_0_22_469
*888 FILLER_0_22_475
*889 FILLER_0_22_477
*890 FILLER_0_22_489
*891 FILLER_0_22_501
*892 FILLER_0_22_513
*893 FILLER_0_22_53
*894 FILLER_0_22_65
*895 FILLER_0_22_77
*896 FILLER_0_22_83
*897 FILLER_0_22_85
*898 FILLER_0_22_97
*899 FILLER_0_23_105
*900 FILLER_0_23_111
*901 FILLER_0_23_113
*902 FILLER_0_23_125
*903 FILLER_0_23_137
*904 FILLER_0_23_149
*905 FILLER_0_23_15
*906 FILLER_0_23_161
*907 FILLER_0_23_167
*908 FILLER_0_23_169
*909 FILLER_0_23_181
*910 FILLER_0_23_193
*911 FILLER_0_23_205
*912 FILLER_0_23_217
*913 FILLER_0_23_223
*914 FILLER_0_23_225
*915 FILLER_0_23_237
*916 FILLER_0_23_249
*917 FILLER_0_23_261
*918 FILLER_0_23_27
*919 FILLER_0_23_273
*920 FILLER_0_23_279
*921 FILLER_0_23_281
*922 FILLER_0_23_293
*923 FILLER_0_23_3
*924 FILLER_0_23_305
*925 FILLER_0_23_317
*926 FILLER_0_23_329
*927 FILLER_0_23_335
*928 FILLER_0_23_337
*929 FILLER_0_23_349
*930 FILLER_0_23_361
*931 FILLER_0_23_373
*932 FILLER_0_23_385
*933 FILLER_0_23_39
*934 FILLER_0_23_391
*935 FILLER_0_23_393
*936 FILLER_0_23_405
*937 FILLER_0_23_417
*938 FILLER_0_23_429
*939 FILLER_0_23_441
*940 FILLER_0_23_447
*941 FILLER_0_23_449
*942 FILLER_0_23_461
*943 FILLER_0_23_473
*944 FILLER_0_23_485
*945 FILLER_0_23_497
*946 FILLER_0_23_503
*947 FILLER_0_23_505
*948 FILLER_0_23_51
*949 FILLER_0_23_513
*950 FILLER_0_23_55
*951 FILLER_0_23_57
*952 FILLER_0_23_69
*953 FILLER_0_23_81
*954 FILLER_0_23_93
*955 FILLER_0_24_109
*956 FILLER_0_24_121
*957 FILLER_0_24_133
*958 FILLER_0_24_139
*959 FILLER_0_24_141
*960 FILLER_0_24_15
*961 FILLER_0_24_153
*962 FILLER_0_24_165
*963 FILLER_0_24_177
*964 FILLER_0_24_189
*965 FILLER_0_24_195
*966 FILLER_0_24_197
*967 FILLER_0_24_209
*968 FILLER_0_24_221
*969 FILLER_0_24_233
*970 FILLER_0_24_245
*971 FILLER_0_24_251
*972 FILLER_0_24_253
*973 FILLER_0_24_265
*974 FILLER_0_24_27
*975 FILLER_0_24_277
*976 FILLER_0_24_289
*977 FILLER_0_24_29
*978 FILLER_0_24_3
*979 FILLER_0_24_301
*980 FILLER_0_24_307
*981 FILLER_0_24_309
*982 FILLER_0_24_321
*983 FILLER_0_24_333
*984 FILLER_0_24_345
*985 FILLER_0_24_357
*986 FILLER_0_24_363
*987 FILLER_0_24_365
*988 FILLER_0_24_377
*989 FILLER_0_24_389
*990 FILLER_0_24_401
*991 FILLER_0_24_41
*992 FILLER_0_24_413
*993 FILLER_0_24_419
*994 FILLER_0_24_421
*995 FILLER_0_24_433
*996 FILLER_0_24_445
*997 FILLER_0_24_457
*998 FILLER_0_24_469
*999 FILLER_0_24_475
*1000 FILLER_0_24_477
*1001 FILLER_0_24_489
*1002 FILLER_0_24_501
*1003 FILLER_0_24_513
*1004 FILLER_0_24_53
*1005 FILLER_0_24_65
*1006 FILLER_0_24_77
*1007 FILLER_0_24_83
*1008 FILLER_0_24_85
*1009 FILLER_0_24_97
*1010 FILLER_0_25_105
*1011 FILLER_0_25_111
*1012 FILLER_0_25_113
*1013 FILLER_0_25_125
*1014 FILLER_0_25_137
*1015 FILLER_0_25_149
*1016 FILLER_0_25_15
*1017 FILLER_0_25_161
*1018 FILLER_0_25_167
*1019 FILLER_0_25_169
*1020 FILLER_0_25_181
*1021 FILLER_0_25_193
*1022 FILLER_0_25_205
*1023 FILLER_0_25_217
*1024 FILLER_0_25_223
*1025 FILLER_0_25_225
*1026 FILLER_0_25_237
*1027 FILLER_0_25_249
*1028 FILLER_0_25_261
*1029 FILLER_0_25_273
*1030 FILLER_0_25_279
*1031 FILLER_0_25_281
*1032 FILLER_0_25_293
*1033 FILLER_0_25_3
*1034 FILLER_0_25_305
*1035 FILLER_0_25_317
*1036 FILLER_0_25_329
*1037 FILLER_0_25_335
*1038 FILLER_0_25_337
*1039 FILLER_0_25_349
*1040 FILLER_0_25_36
*1041 FILLER_0_25_361
*1042 FILLER_0_25_373
*1043 FILLER_0_25_385
*1044 FILLER_0_25_391
*1045 FILLER_0_25_393
*1046 FILLER_0_25_405
*1047 FILLER_0_25_417
*1048 FILLER_0_25_429
*1049 FILLER_0_25_441
*1050 FILLER_0_25_447
*1051 FILLER_0_25_449
*1052 FILLER_0_25_461
*1053 FILLER_0_25_473
*1054 FILLER_0_25_48
*1055 FILLER_0_25_485
*1056 FILLER_0_25_497
*1057 FILLER_0_25_503
*1058 FILLER_0_25_505
*1059 FILLER_0_25_513
*1060 FILLER_0_25_57
*1061 FILLER_0_25_69
*1062 FILLER_0_25_81
*1063 FILLER_0_25_93
*1064 FILLER_0_26_109
*1065 FILLER_0_26_121
*1066 FILLER_0_26_133
*1067 FILLER_0_26_139
*1068 FILLER_0_26_141
*1069 FILLER_0_26_153
*1070 FILLER_0_26_165
*1071 FILLER_0_26_177
*1072 FILLER_0_26_18
*1073 FILLER_0_26_189
*1074 FILLER_0_26_195
*1075 FILLER_0_26_197
*1076 FILLER_0_26_209
*1077 FILLER_0_26_221
*1078 FILLER_0_26_233
*1079 FILLER_0_26_245
*1080 FILLER_0_26_251
*1081 FILLER_0_26_253
*1082 FILLER_0_26_26
*1083 FILLER_0_26_265
*1084 FILLER_0_26_277
*1085 FILLER_0_26_289
*1086 FILLER_0_26_29
*1087 FILLER_0_26_301
*1088 FILLER_0_26_307
*1089 FILLER_0_26_309
*1090 FILLER_0_26_321
*1091 FILLER_0_26_333
*1092 FILLER_0_26_345
*1093 FILLER_0_26_357
*1094 FILLER_0_26_363
*1095 FILLER_0_26_365
*1096 FILLER_0_26_377
*1097 FILLER_0_26_389
*1098 FILLER_0_26_401
*1099 FILLER_0_26_41
*1100 FILLER_0_26_413
*1101 FILLER_0_26_419
*1102 FILLER_0_26_421
*1103 FILLER_0_26_433
*1104 FILLER_0_26_445
*1105 FILLER_0_26_457
*1106 FILLER_0_26_469
*1107 FILLER_0_26_475
*1108 FILLER_0_26_477
*1109 FILLER_0_26_489
*1110 FILLER_0_26_501
*1111 FILLER_0_26_513
*1112 FILLER_0_26_53
*1113 FILLER_0_26_6
*1114 FILLER_0_26_65
*1115 FILLER_0_26_77
*1116 FILLER_0_26_83
*1117 FILLER_0_26_85
*1118 FILLER_0_26_97
*1119 FILLER_0_27_105
*1120 FILLER_0_27_111
*1121 FILLER_0_27_113
*1122 FILLER_0_27_125
*1123 FILLER_0_27_137
*1124 FILLER_0_27_149
*1125 FILLER_0_27_15
*1126 FILLER_0_27_161
*1127 FILLER_0_27_167
*1128 FILLER_0_27_169
*1129 FILLER_0_27_181
*1130 FILLER_0_27_193
*1131 FILLER_0_27_205
*1132 FILLER_0_27_217
*1133 FILLER_0_27_223
*1134 FILLER_0_27_225
*1135 FILLER_0_27_237
*1136 FILLER_0_27_249
*1137 FILLER_0_27_261
*1138 FILLER_0_27_27
*1139 FILLER_0_27_273
*1140 FILLER_0_27_279
*1141 FILLER_0_27_281
*1142 FILLER_0_27_293
*1143 FILLER_0_27_3
*1144 FILLER_0_27_305
*1145 FILLER_0_27_317
*1146 FILLER_0_27_329
*1147 FILLER_0_27_335
*1148 FILLER_0_27_337
*1149 FILLER_0_27_349
*1150 FILLER_0_27_361
*1151 FILLER_0_27_373
*1152 FILLER_0_27_385
*1153 FILLER_0_27_39
*1154 FILLER_0_27_391
*1155 FILLER_0_27_393
*1156 FILLER_0_27_405
*1157 FILLER_0_27_417
*1158 FILLER_0_27_429
*1159 FILLER_0_27_441
*1160 FILLER_0_27_447
*1161 FILLER_0_27_449
*1162 FILLER_0_27_461
*1163 FILLER_0_27_473
*1164 FILLER_0_27_485
*1165 FILLER_0_27_497
*1166 FILLER_0_27_503
*1167 FILLER_0_27_505
*1168 FILLER_0_27_51
*1169 FILLER_0_27_513
*1170 FILLER_0_27_55
*1171 FILLER_0_27_57
*1172 FILLER_0_27_69
*1173 FILLER_0_27_81
*1174 FILLER_0_27_93
*1175 FILLER_0_28_109
*1176 FILLER_0_28_121
*1177 FILLER_0_28_133
*1178 FILLER_0_28_139
*1179 FILLER_0_28_141
*1180 FILLER_0_28_15
*1181 FILLER_0_28_153
*1182 FILLER_0_28_165
*1183 FILLER_0_28_177
*1184 FILLER_0_28_189
*1185 FILLER_0_28_195
*1186 FILLER_0_28_197
*1187 FILLER_0_28_209
*1188 FILLER_0_28_221
*1189 FILLER_0_28_233
*1190 FILLER_0_28_245
*1191 FILLER_0_28_251
*1192 FILLER_0_28_253
*1193 FILLER_0_28_265
*1194 FILLER_0_28_27
*1195 FILLER_0_28_277
*1196 FILLER_0_28_289
*1197 FILLER_0_28_29
*1198 FILLER_0_28_3
*1199 FILLER_0_28_301
*1200 FILLER_0_28_307
*1201 FILLER_0_28_309
*1202 FILLER_0_28_321
*1203 FILLER_0_28_333
*1204 FILLER_0_28_345
*1205 FILLER_0_28_357
*1206 FILLER_0_28_363
*1207 FILLER_0_28_365
*1208 FILLER_0_28_377
*1209 FILLER_0_28_389
*1210 FILLER_0_28_401
*1211 FILLER_0_28_41
*1212 FILLER_0_28_413
*1213 FILLER_0_28_419
*1214 FILLER_0_28_421
*1215 FILLER_0_28_433
*1216 FILLER_0_28_445
*1217 FILLER_0_28_457
*1218 FILLER_0_28_469
*1219 FILLER_0_28_475
*1220 FILLER_0_28_477
*1221 FILLER_0_28_489
*1222 FILLER_0_28_501
*1223 FILLER_0_28_513
*1224 FILLER_0_28_53
*1225 FILLER_0_28_65
*1226 FILLER_0_28_77
*1227 FILLER_0_28_83
*1228 FILLER_0_28_85
*1229 FILLER_0_28_97
*1230 FILLER_0_29_105
*1231 FILLER_0_29_111
*1232 FILLER_0_29_113
*1233 FILLER_0_29_125
*1234 FILLER_0_29_137
*1235 FILLER_0_29_149
*1236 FILLER_0_29_15
*1237 FILLER_0_29_161
*1238 FILLER_0_29_167
*1239 FILLER_0_29_169
*1240 FILLER_0_29_181
*1241 FILLER_0_29_193
*1242 FILLER_0_29_205
*1243 FILLER_0_29_217
*1244 FILLER_0_29_223
*1245 FILLER_0_29_225
*1246 FILLER_0_29_237
*1247 FILLER_0_29_249
*1248 FILLER_0_29_261
*1249 FILLER_0_29_27
*1250 FILLER_0_29_273
*1251 FILLER_0_29_279
*1252 FILLER_0_29_281
*1253 FILLER_0_29_293
*1254 FILLER_0_29_3
*1255 FILLER_0_29_305
*1256 FILLER_0_29_317
*1257 FILLER_0_29_329
*1258 FILLER_0_29_335
*1259 FILLER_0_29_337
*1260 FILLER_0_29_349
*1261 FILLER_0_29_361
*1262 FILLER_0_29_373
*1263 FILLER_0_29_385
*1264 FILLER_0_29_39
*1265 FILLER_0_29_391
*1266 FILLER_0_29_393
*1267 FILLER_0_29_405
*1268 FILLER_0_29_417
*1269 FILLER_0_29_429
*1270 FILLER_0_29_441
*1271 FILLER_0_29_447
*1272 FILLER_0_29_449
*1273 FILLER_0_29_461
*1274 FILLER_0_29_473
*1275 FILLER_0_29_485
*1276 FILLER_0_29_497
*1277 FILLER_0_29_503
*1278 FILLER_0_29_505
*1279 FILLER_0_29_51
*1280 FILLER_0_29_513
*1281 FILLER_0_29_55
*1282 FILLER_0_29_57
*1283 FILLER_0_29_69
*1284 FILLER_0_29_81
*1285 FILLER_0_29_93
*1286 FILLER_0_2_109
*1287 FILLER_0_2_121
*1288 FILLER_0_2_133
*1289 FILLER_0_2_139
*1290 FILLER_0_2_141
*1291 FILLER_0_2_153
*1292 FILLER_0_2_165
*1293 FILLER_0_2_177
*1294 FILLER_0_2_18
*1295 FILLER_0_2_189
*1296 FILLER_0_2_195
*1297 FILLER_0_2_197
*1298 FILLER_0_2_209
*1299 FILLER_0_2_221
*1300 FILLER_0_2_233
*1301 FILLER_0_2_245
*1302 FILLER_0_2_251
*1303 FILLER_0_2_253
*1304 FILLER_0_2_26
*1305 FILLER_0_2_265
*1306 FILLER_0_2_277
*1307 FILLER_0_2_289
*1308 FILLER_0_2_29
*1309 FILLER_0_2_301
*1310 FILLER_0_2_307
*1311 FILLER_0_2_309
*1312 FILLER_0_2_321
*1313 FILLER_0_2_333
*1314 FILLER_0_2_345
*1315 FILLER_0_2_357
*1316 FILLER_0_2_363
*1317 FILLER_0_2_365
*1318 FILLER_0_2_377
*1319 FILLER_0_2_389
*1320 FILLER_0_2_401
*1321 FILLER_0_2_41
*1322 FILLER_0_2_413
*1323 FILLER_0_2_419
*1324 FILLER_0_2_421
*1325 FILLER_0_2_433
*1326 FILLER_0_2_445
*1327 FILLER_0_2_457
*1328 FILLER_0_2_469
*1329 FILLER_0_2_475
*1330 FILLER_0_2_477
*1331 FILLER_0_2_489
*1332 FILLER_0_2_501
*1333 FILLER_0_2_513
*1334 FILLER_0_2_53
*1335 FILLER_0_2_6
*1336 FILLER_0_2_65
*1337 FILLER_0_2_77
*1338 FILLER_0_2_83
*1339 FILLER_0_2_85
*1340 FILLER_0_2_97
*1341 FILLER_0_30_109
*1342 FILLER_0_30_121
*1343 FILLER_0_30_133
*1344 FILLER_0_30_139
*1345 FILLER_0_30_141
*1346 FILLER_0_30_15
*1347 FILLER_0_30_153
*1348 FILLER_0_30_165
*1349 FILLER_0_30_177
*1350 FILLER_0_30_189
*1351 FILLER_0_30_195
*1352 FILLER_0_30_197
*1353 FILLER_0_30_209
*1354 FILLER_0_30_221
*1355 FILLER_0_30_233
*1356 FILLER_0_30_245
*1357 FILLER_0_30_251
*1358 FILLER_0_30_253
*1359 FILLER_0_30_265
*1360 FILLER_0_30_27
*1361 FILLER_0_30_277
*1362 FILLER_0_30_289
*1363 FILLER_0_30_29
*1364 FILLER_0_30_3
*1365 FILLER_0_30_301
*1366 FILLER_0_30_307
*1367 FILLER_0_30_309
*1368 FILLER_0_30_321
*1369 FILLER_0_30_333
*1370 FILLER_0_30_345
*1371 FILLER_0_30_357
*1372 FILLER_0_30_363
*1373 FILLER_0_30_365
*1374 FILLER_0_30_377
*1375 FILLER_0_30_389
*1376 FILLER_0_30_401
*1377 FILLER_0_30_41
*1378 FILLER_0_30_413
*1379 FILLER_0_30_419
*1380 FILLER_0_30_421
*1381 FILLER_0_30_433
*1382 FILLER_0_30_445
*1383 FILLER_0_30_457
*1384 FILLER_0_30_469
*1385 FILLER_0_30_475
*1386 FILLER_0_30_477
*1387 FILLER_0_30_489
*1388 FILLER_0_30_497
*1389 FILLER_0_30_53
*1390 FILLER_0_30_65
*1391 FILLER_0_30_77
*1392 FILLER_0_30_83
*1393 FILLER_0_30_85
*1394 FILLER_0_30_97
*1395 FILLER_0_31_105
*1396 FILLER_0_31_111
*1397 FILLER_0_31_113
*1398 FILLER_0_31_125
*1399 FILLER_0_31_13
*1400 FILLER_0_31_137
*1401 FILLER_0_31_149
*1402 FILLER_0_31_161
*1403 FILLER_0_31_167
*1404 FILLER_0_31_169
*1405 FILLER_0_31_181
*1406 FILLER_0_31_193
*1407 FILLER_0_31_205
*1408 FILLER_0_31_217
*1409 FILLER_0_31_223
*1410 FILLER_0_31_225
*1411 FILLER_0_31_237
*1412 FILLER_0_31_249
*1413 FILLER_0_31_261
*1414 FILLER_0_31_273
*1415 FILLER_0_31_279
*1416 FILLER_0_31_281
*1417 FILLER_0_31_293
*1418 FILLER_0_31_3
*1419 FILLER_0_31_305
*1420 FILLER_0_31_317
*1421 FILLER_0_31_329
*1422 FILLER_0_31_335
*1423 FILLER_0_31_337
*1424 FILLER_0_31_349
*1425 FILLER_0_31_361
*1426 FILLER_0_31_373
*1427 FILLER_0_31_385
*1428 FILLER_0_31_39
*1429 FILLER_0_31_391
*1430 FILLER_0_31_393
*1431 FILLER_0_31_405
*1432 FILLER_0_31_417
*1433 FILLER_0_31_429
*1434 FILLER_0_31_43
*1435 FILLER_0_31_441
*1436 FILLER_0_31_447