*SPEF "ieee 1481-1999"
*DESIGN "shaded_vertex_cache_m"
*DATE "11:11:11 Fri 11 11, 1111"
*VENDOR "OpenRCX"
*PROGRAM "Parallel Extraction"
*VERSION "1.0"
*DESIGN_FLOW "NAME_SCOPE LOCAL" "PIN_CAP NONE"
*DIVIDER /
*DELIMITER :
*BUS_DELIMITER []
*T_UNIT 1 NS
*C_UNIT 1 PF
*R_UNIT 1 OHM
*L_UNIT 1 HENRY

*NAME_MAP
*1 clear_i
*2 clk_i
*3 mstream_i
*4 mstream_o[0]
*5 mstream_o[10]
*6 mstream_o[11]
*7 mstream_o[12]
*8 mstream_o[13]
*9 mstream_o[14]
*10 mstream_o[15]
*11 mstream_o[16]
*12 mstream_o[17]
*13 mstream_o[18]
*14 mstream_o[19]
*15 mstream_o[1]
*16 mstream_o[20]
*17 mstream_o[21]
*18 mstream_o[22]
*19 mstream_o[23]
*20 mstream_o[24]
*21 mstream_o[25]
*22 mstream_o[26]
*23 mstream_o[27]
*24 mstream_o[28]
*25 mstream_o[29]
*26 mstream_o[2]
*27 mstream_o[30]
*28 mstream_o[31]
*29 mstream_o[32]
*30 net140
*31 mstream_o[3]
*32 mstream_o[4]
*33 mstream_o[5]
*34 mstream_o[6]
*35 mstream_o[7]
*36 mstream_o[8]
*37 mstream_o[9]
*38 nrst_i
*39 store_index_i[0]
*40 store_index_i[10]
*41 store_index_i[11]
*42 store_index_i[12]
*43 store_index_i[13]
*44 store_index_i[14]
*45 store_index_i[15]
*46 store_index_i[16]
*47 store_index_i[17]
*48 store_index_i[18]
*49 store_index_i[19]
*50 store_index_i[1]
*51 store_index_i[20]
*52 store_index_i[21]
*53 store_index_i[22]
*54 store_index_i[23]
*55 store_index_i[24]
*56 store_index_i[25]
*57 store_index_i[26]
*58 store_index_i[27]
*59 store_index_i[28]
*60 store_index_i[29]
*61 store_index_i[2]
*62 store_index_i[30]
*63 store_index_i[31]
*64 store_index_i[3]
*65 store_index_i[4]
*66 store_index_i[5]
*67 store_index_i[6]
*68 store_index_i[7]
*69 store_index_i[8]
*70 store_index_i[9]
*71 store_valid_i
*72 store_vertex_i[0]
*73 store_vertex_i[10]
*74 store_vertex_i[11]
*75 store_vertex_i[12]
*76 store_vertex_i[13]
*77 store_vertex_i[14]
*78 store_vertex_i[15]
*79 store_vertex_i[16]
*80 store_vertex_i[17]
*81 store_vertex_i[18]
*82 store_vertex_i[19]
*83 store_vertex_i[1]
*84 store_vertex_i[20]
*85 store_vertex_i[21]
*86 store_vertex_i[22]
*87 store_vertex_i[23]
*88 store_vertex_i[24]
*89 store_vertex_i[25]
*90 store_vertex_i[26]
*91 store_vertex_i[27]
*92 store_vertex_i[28]
*93 store_vertex_i[29]
*94 store_vertex_i[2]
*95 store_vertex_i[30]
*96 store_vertex_i[31]
*97 store_vertex_i[3]
*98 store_vertex_i[4]
*99 store_vertex_i[5]
*100 store_vertex_i[6]
*101 store_vertex_i[7]
*102 store_vertex_i[8]
*103 store_vertex_i[9]
*104 test_found_o
*105 test_index_i[0]
*106 test_index_i[10]
*107 test_index_i[11]
*108 test_index_i[12]
*109 test_index_i[13]
*110 test_index_i[14]
*111 test_index_i[15]
*112 test_index_i[16]
*113 test_index_i[17]
*114 test_index_i[18]
*115 test_index_i[19]
*116 test_index_i[1]
*117 test_index_i[20]
*118 test_index_i[21]
*119 test_index_i[22]
*120 test_index_i[23]
*121 test_index_i[24]
*122 test_index_i[25]
*123 test_index_i[26]
*124 test_index_i[27]
*125 test_index_i[28]
*126 test_index_i[29]
*127 test_index_i[2]
*128 test_index_i[30]
*129 test_index_i[31]
*130 test_index_i[3]
*131 test_index_i[4]
*132 test_index_i[5]
*133 test_index_i[6]
*134 test_index_i[7]
*135 test_index_i[8]
*136 test_index_i[9]
*137 test_valid_i
*140 _000_
*141 _001_
*142 _002_
*143 _003_
*144 _004_
*145 _005_
*146 _006_
*147 _007_
*148 _008_
*149 _009_
*150 _010_
*151 _011_
*152 _012_
*153 _013_
*154 _014_
*155 _015_
*156 _016_
*157 _017_
*158 _018_
*159 _019_
*160 _020_
*161 _021_
*162 _022_
*163 _023_
*164 _024_
*165 _025_
*166 _026_
*167 _027_
*168 _028_
*169 _029_
*170 _030_
*171 _031_
*172 _032_
*173 _033_
*174 _034_
*175 _035_
*176 _036_
*177 _037_
*178 _038_
*179 _039_
*180 _040_
*181 _041_
*182 _042_
*183 _043_
*184 _044_
*185 _045_
*186 _046_
*187 _047_
*188 _048_
*189 _049_
*190 _050_
*191 _051_
*192 _052_
*193 _053_
*194 _054_
*195 _055_
*196 _056_
*197 _057_
*198 _058_
*199 _059_
*200 _060_
*201 _061_
*202 _062_
*203 _063_
*204 _064_
*205 _065_
*206 _066_
*207 _067_
*208 _068_
*209 _069_
*210 _070_
*211 _071_
*212 _072_
*213 _073_
*214 _074_
*215 _075_
*216 _076_
*217 _077_
*218 _078_
*219 _079_
*220 _080_
*221 _081_
*222 _082_
*223 _083_
*224 _084_
*225 _085_
*226 _086_
*227 _087_
*228 _088_
*229 _089_
*230 _090_
*231 _091_
*232 _092_
*233 _093_
*234 _094_
*235 _095_
*236 _096_
*237 _097_
*238 _098_
*239 _099_
*240 _100_
*241 _101_
*242 _102_
*243 _103_
*244 _104_
*245 _105_
*246 _106_
*247 _107_
*248 _108_
*249 _109_
*250 _110_
*251 _111_
*252 _112_
*253 _113_
*254 _114_
*255 _115_
*256 _116_
*257 _117_
*258 _118_
*259 _119_
*260 _120_
*261 _121_
*262 _122_
*263 _123_
*264 _124_
*265 _125_
*266 _126_
*267 _127_
*268 _128_
*269 _129_
*270 _130_
*271 _131_
*272 _132_
*273 _133_
*274 _134_
*275 _135_
*276 _136_
*277 _137_
*278 _138_
*279 _139_
*280 _140_
*281 _141_
*282 _142_
*283 _143_
*284 _144_
*285 _145_
*286 _146_
*287 _147_
*288 _148_
*289 _149_
*290 _150_
*291 _151_
*292 _152_
*293 _153_
*294 _154_
*295 _155_
*296 _156_
*297 _157_
*298 _158_
*299 _159_
*300 _160_
*301 _161_
*302 _162_
*303 _163_
*304 _164_
*305 _165_
*306 _166_
*307 _167_
*308 _168_
*309 _169_
*310 _170_
*311 _171_
*312 _172_
*313 _173_
*314 _174_
*315 _175_
*316 _176_
*317 _177_
*318 _178_
*319 _179_
*320 _180_
*321 _181_
*322 _182_
*323 _183_
*324 _184_
*325 _185_
*326 _186_
*327 _187_
*328 _188_
*329 _189_
*330 _190_
*331 _191_
*332 _192_
*333 _193_
*334 _194_
*335 _195_
*336 _196_
*337 _197_
*338 _198_
*339 _199_
*340 _200_
*341 _201_
*342 _202_
*343 _203_
*344 _204_
*345 _205_
*346 _206_
*347 _207_
*348 _208_
*349 _209_
*350 _210_
*351 _211_
*352 _212_
*353 _213_
*354 _214_
*355 _215_
*356 _216_
*357 _217_
*358 _218_
*359 _219_
*360 _220_
*361 _221_
*362 _222_
*363 _223_
*364 _224_
*365 _225_
*366 _226_
*367 _227_
*368 _228_
*369 _229_
*370 _230_
*371 _231_
*372 _232_
*373 _233_
*374 _234_
*375 _235_
*376 _236_
*377 _237_
*378 _238_
*379 _239_
*380 _240_
*381 _241_
*382 _242_
*383 _243_
*384 _244_
*385 _245_
*386 _246_
*387 _247_
*388 _248_
*389 _249_
*390 _250_
*391 _251_
*392 _252_
*393 _253_
*394 _254_
*395 _255_
*396 _256_
*397 _257_
*398 _258_
*399 _259_
*400 _260_
*401 _261_
*402 _262_
*403 _263_
*404 _264_
*405 _265_
*406 _266_
*407 _267_
*408 _268_
*409 _269_
*410 _270_
*411 _271_
*412 _272_
*413 _273_
*414 _274_
*415 _275_
*416 _276_
*417 _277_
*418 _278_
*419 clknet_0_clk_i
*420 clknet_3_0_0_clk_i
*421 clknet_3_1_0_clk_i
*422 clknet_3_2_0_clk_i
*423 clknet_3_3_0_clk_i
*424 clknet_3_4_0_clk_i
*425 clknet_3_5_0_clk_i
*426 clknet_3_6_0_clk_i
*427 clknet_3_7_0_clk_i
*428 index\[0\]\[0\]
*429 index\[0\]\[10\]
*430 index\[0\]\[11\]
*431 index\[0\]\[12\]
*432 index\[0\]\[13\]
*433 index\[0\]\[14\]
*434 index\[0\]\[15\]
*435 index\[0\]\[16\]
*436 index\[0\]\[17\]
*437 index\[0\]\[18\]
*438 index\[0\]\[19\]
*439 index\[0\]\[1\]
*440 index\[0\]\[20\]
*441 index\[0\]\[21\]
*442 index\[0\]\[22\]
*443 index\[0\]\[23\]
*444 index\[0\]\[24\]
*445 index\[0\]\[25\]
*446 index\[0\]\[26\]
*447 index\[0\]\[27\]
*448 index\[0\]\[28\]
*449 index\[0\]\[29\]
*450 index\[0\]\[2\]
*451 index\[0\]\[30\]
*452 index\[0\]\[31\]
*453 index\[0\]\[3\]
*454 index\[0\]\[4\]
*455 index\[0\]\[5\]
*456 index\[0\]\[6\]
*457 index\[0\]\[7\]
*458 index\[0\]\[8\]
*459 index\[0\]\[9\]
*460 net1
*461 net10
*462 net100
*463 net101
*464 net102
*465 net103
*466 net104
*467 net105
*468 net106
*469 net107
*470 net108
*471 net109
*472 net11
*473 net110
*474 net111
*475 net112
*476 net113
*477 net114
*478 net115
*479 net116
*480 net117
*481 net118
*482 net119
*483 net12
*484 net120
*485 net121
*486 net122
*487 net123
*488 net124
*489 net125
*490 net126
*491 net127
*492 net128
*493 net129
*494 net13
*495 net130
*496 net131
*497 net132
*498 net133
*499 net134
*500 net135
*501 net136
*502 net137
*503 net138
*504 net139
*505 net14
*506 net141
*507 net142
*508 net143
*509 net144
*510 net145
*511 net146
*512 net147
*513 net148
*514 net149
*515 net15
*516 net150
*517 net151
*518 net152
*519 net153
*520 net154
*521 net155
*522 net156
*523 net157
*524 net158
*525 net159
*526 net16
*527 net160
*528 net161
*529 net162
*530 net163
*531 net164
*532 net165
*533 net166
*534 net167
*535 net168
*536 net169
*537 net17
*538 net170
*539 net171
*540 net172
*541 net173
*542 net174
*543 net175
*544 net176
*545 net177
*546 net178
*547 net179
*548 net18
*549 net180
*550 net181
*551 net182
*552 net183
*553 net184
*554 net185
*555 net186
*556 net187
*557 net188
*558 net189
*559 net19
*560 net190
*561 net191
*562 net192
*563 net193
*564 net194
*565 net195
*566 net196
*567 net197
*568 net198
*569 net199
*570 net2
*571 net20
*572 net200
*573 net201
*574 net202
*575 net203
*576 net204
*577 net205
*578 net21
*579 net22
*580 net23
*581 net24
*582 net25
*583 net26
*584 net27
*585 net28
*586 net29
*587 net3
*588 net30
*589 net31
*590 net32
*591 net33
*592 net34
*593 net35
*594 net36
*595 net37
*596 net38
*597 net39
*598 net4
*599 net40
*600 net41
*601 net42
*602 net43
*603 net44
*604 net45
*605 net46
*606 net47
*607 net48
*608 net49
*609 net5
*610 net50
*611 net51
*612 net52
*613 net53
*614 net54
*615 net55
*616 net56
*617 net57
*618 net58
*619 net59
*620 net6
*621 net60
*622 net61
*623 net62
*624 net63
*625 net64
*626 net65
*627 net66
*628 net67
*629 net68
*630 net69
*631 net7
*632 net70
*633 net71
*634 net72
*635 net73
*636 net74
*637 net75
*638 net76
*639 net77
*640 net78
*641 net79
*642 net8
*643 net80
*644 net81
*645 net82
*646 net83
*647 net84
*648 net85
*649 net86
*650 net87
*651 net88
*652 net89
*653 net9
*654 net90
*655 net91
*656 net92
*657 net93
*658 net94
*659 net95
*660 net96
*661 net97
*662 net98
*663 net99
*664 valid\[0\]
*665 ANTENNA__296__A
*666 ANTENNA__300__B_N
*667 ANTENNA__321__B
*668 ANTENNA__322__A
*669 ANTENNA__327__B
*670 ANTENNA__328__A1
*671 ANTENNA__331__B
*672 ANTENNA__333__B
*673 ANTENNA__335__A
*674 ANTENNA__336__A
*675 ANTENNA__337__B
*676 ANTENNA__341__A
*677 ANTENNA__342__A
*678 ANTENNA__347__B
*679 ANTENNA__351__B
*680 ANTENNA__352__A1
*681 ANTENNA__354__A1
*682 ANTENNA__359__B
*683 ANTENNA__360__A
*684 ANTENNA__363__A_N
*685 ANTENNA__364__A
*686 ANTENNA__369__B
*687 ANTENNA__371__B
*688 ANTENNA__374__B
*689 ANTENNA__375__A
*690 ANTENNA__380__A_N
*691 ANTENNA__382__B
*692 ANTENNA__384__A
*693 ANTENNA__388__A
*694 ANTENNA__389__B
*695 ANTENNA__399__B
*696 ANTENNA__400__A
*697 ANTENNA__403__B
*698 ANTENNA__406__B
*699 ANTENNA__407__A1
*700 ANTENNA__409__A
*701 ANTENNA__410__B
*702 ANTENNA__411__A
*703 ANTENNA__414__A
*704 ANTENNA__415__A
*705 ANTENNA__416__B
*706 ANTENNA__425__A
*707 ANTENNA__427__A
*708 ANTENNA__429__A1
*709 ANTENNA__429__S
*710 ANTENNA__431__A1
*711 ANTENNA__431__S
*712 ANTENNA__433__A1
*713 ANTENNA__433__S
*714 ANTENNA__435__A1
*715 ANTENNA__435__S
*716 ANTENNA__437__S
*717 ANTENNA__439__S
*718 ANTENNA__441__S
*719 ANTENNA__443__S
*720 ANTENNA__445__S
*721 ANTENNA__447__S
*722 ANTENNA__449__S
*723 ANTENNA__451__S
*724 ANTENNA__453__S
*725 ANTENNA__455__S
*726 ANTENNA__457__S
*727 ANTENNA__459__A
*728 ANTENNA__492__A
*729 ANTENNA__525__A
*730 ANTENNA__526__S
*731 ANTENNA__528__S
*732 ANTENNA__530__A1
*733 ANTENNA__530__S
*734 ANTENNA__532__A1
*735 ANTENNA__532__S
*736 ANTENNA__534__S
*737 ANTENNA__536__A1
*738 ANTENNA__536__S
*739 ANTENNA__538__A1
*740 ANTENNA__538__S
*741 ANTENNA__540__A1
*742 ANTENNA__540__S
*743 ANTENNA__542__A1
*744 ANTENNA__542__S
*745 ANTENNA__544__A1
*746 ANTENNA__544__S
*747 ANTENNA__546__A1
*748 ANTENNA__546__S
*749 ANTENNA__548__A1
*750 ANTENNA__548__S
*751 ANTENNA__550__A1
*752 ANTENNA__550__S
*753 ANTENNA__552__A1
*754 ANTENNA__552__S
*755 ANTENNA__554__A1
*756 ANTENNA__554__S
*757 ANTENNA__556__A1
*758 ANTENNA__556__S
*759 ANTENNA__558__A1
*760 ANTENNA__558__S
*761 ANTENNA__560__RESET_B
*762 ANTENNA__561__RESET_B
*763 ANTENNA__562__RESET_B
*764 ANTENNA__563__RESET_B
*765 ANTENNA__564__RESET_B
*766 ANTENNA__565__RESET_B
*767 ANTENNA__566__RESET_B
*768 ANTENNA__567__RESET_B
*769 ANTENNA__568__RESET_B
*770 ANTENNA__569__RESET_B
*771 ANTENNA__570__RESET_B
*772 ANTENNA__571__RESET_B
*773 ANTENNA__572__RESET_B
*774 ANTENNA__573__RESET_B
*775 ANTENNA__616__RESET_B
*776 ANTENNA__617__RESET_B
*777 ANTENNA__618__RESET_B
*778 ANTENNA__619__RESET_B
*779 ANTENNA__620__RESET_B
*780 ANTENNA__622__RESET_B
*781 ANTENNA__623__RESET_B
*782 ANTENNA_clkbuf_3_0_0_clk_i_A
*783 ANTENNA_clkbuf_3_1_0_clk_i_A
*784 ANTENNA_clkbuf_3_2_0_clk_i_A
*785 ANTENNA_clkbuf_3_3_0_clk_i_A
*786 ANTENNA_clkbuf_3_4_0_clk_i_A
*787 ANTENNA_clkbuf_3_5_0_clk_i_A
*788 ANTENNA_clkbuf_3_6_0_clk_i_A
*789 ANTENNA_clkbuf_3_7_0_clk_i_A
*790 ANTENNA_fanout136_A
*791 ANTENNA_fanout139_A
*792 ANTENNA_hold22_A
*793 ANTENNA_hold24_A
*794 ANTENNA_hold26_A
*795 ANTENNA_hold29_A
*796 ANTENNA_hold34_A
*797 ANTENNA_hold35_A
*798 ANTENNA_hold36_A
*799 ANTENNA_hold37_A
*800 ANTENNA_hold38_A
*801 ANTENNA_hold39_A
*802 ANTENNA_hold40_A
*803 ANTENNA_hold41_A
*804 ANTENNA_hold42_A
*805 ANTENNA_hold43_A
*806 ANTENNA_hold44_A
*807 ANTENNA_hold45_A
*808 ANTENNA_hold46_A
*809 ANTENNA_hold47_A
*810 ANTENNA_hold48_A
*811 ANTENNA_hold49_A
*812 ANTENNA_hold50_A
*813 ANTENNA_hold51_A
*814 ANTENNA_hold52_A
*815 ANTENNA_hold53_A
*816 ANTENNA_hold54_A
*817 ANTENNA_hold55_A
*818 ANTENNA_hold56_A
*819 ANTENNA_hold57_A
*820 ANTENNA_hold58_A
*821 ANTENNA_hold59_A
*822 ANTENNA_hold60_A
*823 ANTENNA_hold61_A
*824 ANTENNA_hold62_A
*825 ANTENNA_hold63_A
*826 ANTENNA_hold64_A
*827 ANTENNA_hold65_A
*828 ANTENNA_output101_A
*829 ANTENNA_output102_A
*830 ANTENNA_output103_A
*831 ANTENNA_output104_A
*832 ANTENNA_output105_A
*833 ANTENNA_output106_A
*834 ANTENNA_output107_A
*835 ANTENNA_output108_A
*836 ANTENNA_output109_A
*837 ANTENNA_output110_A
*838 ANTENNA_output111_A
*839 ANTENNA_output112_A
*840 ANTENNA_output113_A
*841 ANTENNA_output114_A
*842 ANTENNA_output115_A
*843 ANTENNA_output116_A
*844 ANTENNA_output117_A
*845 ANTENNA_output118_A
*846 ANTENNA_output119_A
*847 ANTENNA_output120_A
*848 ANTENNA_output121_A
*849 ANTENNA_output122_A
*850 ANTENNA_output123_A
*851 ANTENNA_output124_A
*852 ANTENNA_output125_A
*853 ANTENNA_output126_A
*854 ANTENNA_output127_A
*855 ANTENNA_output128_A
*856 ANTENNA_output129_A
*857 ANTENNA_output130_A
*858 ANTENNA_output131_A
*859 ANTENNA_output132_A
*860 ANTENNA_output133_A
*861 ANTENNA_wire135_A
*862 FILLER_0_0_103
*863 FILLER_0_0_107
*864 FILLER_0_0_111
*865 FILLER_0_0_129
*866 FILLER_0_0_133
*867 FILLER_0_0_139
*868 FILLER_0_0_141
*869 FILLER_0_0_149
*870 FILLER_0_0_15
*871 FILLER_0_0_169
*872 FILLER_0_0_173
*873 FILLER_0_0_179
*874 FILLER_0_0_197
*875 FILLER_0_0_201
*876 FILLER_0_0_223
*877 FILLER_0_0_225
*878 FILLER_0_0_229
*879 FILLER_0_0_247
*880 FILLER_0_0_251
*881 FILLER_0_0_253
*882 FILLER_0_0_27
*883 FILLER_0_0_271
*884 FILLER_0_0_275
*885 FILLER_0_0_279
*886 FILLER_0_0_29
*887 FILLER_0_0_297
*888 FILLER_0_0_3
*889 FILLER_0_0_301
*890 FILLER_0_0_307
*891 FILLER_0_0_309
*892 FILLER_0_0_317
*893 FILLER_0_0_337
*894 FILLER_0_0_341
*895 FILLER_0_0_347
*896 FILLER_0_0_365
*897 FILLER_0_0_369
*898 FILLER_0_0_37
*899 FILLER_0_0_391
*900 FILLER_0_0_393
*901 FILLER_0_0_397
*902 FILLER_0_0_415
*903 FILLER_0_0_419
*904 FILLER_0_0_421
*905 FILLER_0_0_439
*906 FILLER_0_0_443
*907 FILLER_0_0_447
*908 FILLER_0_0_465
*909 FILLER_0_0_469
*910 FILLER_0_0_473
*911 FILLER_0_0_493
*912 FILLER_0_0_501
*913 FILLER_0_0_521
*914 FILLER_0_0_529
*915 FILLER_0_0_533
*916 FILLER_0_0_55
*917 FILLER_0_0_559
*918 FILLER_0_0_561
*919 FILLER_0_0_57
*920 FILLER_0_0_583
*921 FILLER_0_0_587
*922 FILLER_0_0_589
*923 FILLER_0_0_607
*924 FILLER_0_0_61
*925 FILLER_0_0_613
*926 FILLER_0_0_633
*927 FILLER_0_0_641
*928 FILLER_0_0_661
*929 FILLER_0_0_669
*930 FILLER_0_0_689
*931 FILLER_0_0_697
*932 FILLER_0_0_701
*933 FILLER_0_0_727
*934 FILLER_0_0_729
*935 FILLER_0_0_751
*936 FILLER_0_0_757
*937 FILLER_0_0_775
*938 FILLER_0_0_781
*939 FILLER_0_0_79
*940 FILLER_0_0_801
*941 FILLER_0_0_809
*942 FILLER_0_0_829
*943 FILLER_0_0_83
*944 FILLER_0_0_834
*945 FILLER_0_0_841
*946 FILLER_0_0_85
*947 FILLER_0_100_109
*948 FILLER_0_100_121
*949 FILLER_0_100_133
*950 FILLER_0_100_139
*951 FILLER_0_100_141
*952 FILLER_0_100_15
*953 FILLER_0_100_153
*954 FILLER_0_100_165
*955 FILLER_0_100_177
*956 FILLER_0_100_189
*957 FILLER_0_100_195
*958 FILLER_0_100_197
*959 FILLER_0_100_209
*960 FILLER_0_100_221
*961 FILLER_0_100_233
*962 FILLER_0_100_245
*963 FILLER_0_100_251
*964 FILLER_0_100_253
*965 FILLER_0_100_265
*966 FILLER_0_100_27
*967 FILLER_0_100_277
*968 FILLER_0_100_289
*969 FILLER_0_100_29
*970 FILLER_0_100_3
*971 FILLER_0_100_301
*972 FILLER_0_100_307
*973 FILLER_0_100_309
*974 FILLER_0_100_321
*975 FILLER_0_100_333
*976 FILLER_0_100_345
*977 FILLER_0_100_357
*978 FILLER_0_100_363
*979 FILLER_0_100_365
*980 FILLER_0_100_377
*981 FILLER_0_100_389
*982 FILLER_0_100_401
*983 FILLER_0_100_41
*984 FILLER_0_100_413
*985 FILLER_0_100_419
*986 FILLER_0_100_421
*987 FILLER_0_100_433
*988 FILLER_0_100_445
*989 FILLER_0_100_457
*990 FILLER_0_100_469
*991 FILLER_0_100_475
*992 FILLER_0_100_477
*993 FILLER_0_100_489
*994 FILLER_0_100_501
*995 FILLER_0_100_513
*996 FILLER_0_100_525
*997 FILLER_0_100_53
*998 FILLER_0_100_531
*999 FILLER_0_100_533
*1000 FILLER_0_100_545
*1001 FILLER_0_100_557
*1002 FILLER_0_100_569
*1003 FILLER_0_100_581
*1004 FILLER_0_100_587
*1005 FILLER_0_100_589
*1006 FILLER_0_100_601
*1007 FILLER_0_100_613
*1008 FILLER_0_100_625
*1009 FILLER_0_100_637
*1010 FILLER_0_100_643
*1011 FILLER_0_100_645
*1012 FILLER_0_100_65
*1013 FILLER_0_100_657
*1014 FILLER_0_100_669
*1015 FILLER_0_100_681
*1016 FILLER_0_100_693
*1017 FILLER_0_100_699
*1018 FILLER_0_100_701
*1019 FILLER_0_100_713
*1020 FILLER_0_100_725
*1021 FILLER_0_100_737
*1022 FILLER_0_100_749
*1023 FILLER_0_100_755
*1024 FILLER_0_100_757
*1025 FILLER_0_100_769
*1026 FILLER_0_100_77
*1027 FILLER_0_100_781
*1028 FILLER_0_100_793
*1029 FILLER_0_100_805
*1030 FILLER_0_100_811
*1031 FILLER_0_100_813
*1032 FILLER_0_100_825
*1033 FILLER_0_100_83
*1034 FILLER_0_100_837
*1035 FILLER_0_100_841
*1036 FILLER_0_100_85
*1037 FILLER_0_100_97
*1038 FILLER_0_101_105
*1039 FILLER_0_101_111
*1040 FILLER_0_101_113
*1041 FILLER_0_101_125
*1042 FILLER_0_101_137
*1043 FILLER_0_101_149
*1044 FILLER_0_101_15
*1045 FILLER_0_101_161
*1046 FILLER_0_101_167
*1047 FILLER_0_101_169
*1048 FILLER_0_101_181
*1049 FILLER_0_101_193
*1050 FILLER_0_101_205
*1051 FILLER_0_101_217
*1052 FILLER_0_101_223
*1053 FILLER_0_101_225
*1054 FILLER_0_101_237
*1055 FILLER_0_101_249
*1056 FILLER_0_101_261
*1057 FILLER_0_101_27
*1058 FILLER_0_101_273
*1059 FILLER_0_101_279
*1060 FILLER_0_101_281
*1061 FILLER_0_101_293
*1062 FILLER_0_101_3
*1063 FILLER_0_101_305
*1064 FILLER_0_101_317
*1065 FILLER_0_101_329
*1066 FILLER_0_101_335
*1067 FILLER_0_101_337
*1068 FILLER_0_101_349
*1069 FILLER_0_101_361
*1070 FILLER_0_101_373
*1071 FILLER_0_101_385
*1072 FILLER_0_101_39
*1073 FILLER_0_101_391
*1074 FILLER_0_101_393
*1075 FILLER_0_101_405
*1076 FILLER_0_101_417
*1077 FILLER_0_101_429
*1078 FILLER_0_101_441
*1079 FILLER_0_101_447
*1080 FILLER_0_101_449
*1081 FILLER_0_101_461
*1082 FILLER_0_101_473
*1083 FILLER_0_101_485
*1084 FILLER_0_101_497
*1085 FILLER_0_101_503
*1086 FILLER_0_101_505
*1087 FILLER_0_101_51
*1088 FILLER_0_101_517
*1089 FILLER_0_101_529
*1090 FILLER_0_101_541
*1091 FILLER_0_101_55
*1092 FILLER_0_101_553
*1093 FILLER_0_101_559
*1094 FILLER_0_101_561
*1095 FILLER_0_101_57
*1096 FILLER_0_101_573
*1097 FILLER_0_101_585
*1098 FILLER_0_101_597
*1099 FILLER_0_101_609
*1100 FILLER_0_101_615
*1101 FILLER_0_101_617
*1102 FILLER_0_101_629
*1103 FILLER_0_101_641
*1104 FILLER_0_101_653
*1105 FILLER_0_101_665
*1106 FILLER_0_101_671
*1107 FILLER_0_101_673
*1108 FILLER_0_101_685
*1109 FILLER_0_101_69
*1110 FILLER_0_101_697
*1111 FILLER_0_101_709
*1112 FILLER_0_101_721
*1113 FILLER_0_101_727
*1114 FILLER_0_101_729
*1115 FILLER_0_101_741
*1116 FILLER_0_101_753
*1117 FILLER_0_101_765
*1118 FILLER_0_101_777
*1119 FILLER_0_101_783
*1120 FILLER_0_101_785
*1121 FILLER_0_101_797
*1122 FILLER_0_101_809
*1123 FILLER_0_101_81
*1124 FILLER_0_101_821
*1125 FILLER_0_101_833
*1126 FILLER_0_101_839
*1127 FILLER_0_101_841
*1128 FILLER_0_101_93
*1129 FILLER_0_102_109
*1130 FILLER_0_102_121
*1131 FILLER_0_102_133
*1132 FILLER_0_102_139
*1133 FILLER_0_102_141
*1134 FILLER_0_102_15
*1135 FILLER_0_102_153
*1136 FILLER_0_102_165
*1137 FILLER_0_102_177
*1138 FILLER_0_102_189
*1139 FILLER_0_102_195
*1140 FILLER_0_102_197
*1141 FILLER_0_102_209
*1142 FILLER_0_102_221
*1143 FILLER_0_102_233
*1144 FILLER_0_102_245
*1145 FILLER_0_102_251
*1146 FILLER_0_102_253
*1147 FILLER_0_102_265
*1148 FILLER_0_102_27
*1149 FILLER_0_102_277
*1150 FILLER_0_102_289
*1151 FILLER_0_102_29
*1152 FILLER_0_102_3
*1153 FILLER_0_102_301
*1154 FILLER_0_102_307
*1155 FILLER_0_102_309
*1156 FILLER_0_102_321
*1157 FILLER_0_102_333
*1158 FILLER_0_102_345
*1159 FILLER_0_102_357
*1160 FILLER_0_102_363
*1161 FILLER_0_102_365
*1162 FILLER_0_102_377
*1163 FILLER_0_102_389
*1164 FILLER_0_102_401
*1165 FILLER_0_102_41
*1166 FILLER_0_102_413
*1167 FILLER_0_102_419
*1168 FILLER_0_102_421
*1169 FILLER_0_102_433
*1170 FILLER_0_102_445
*1171 FILLER_0_102_457
*1172 FILLER_0_102_469
*1173 FILLER_0_102_475
*1174 FILLER_0_102_477
*1175 FILLER_0_102_489
*1176 FILLER_0_102_501
*1177 FILLER_0_102_513
*1178 FILLER_0_102_525
*1179 FILLER_0_102_53
*1180 FILLER_0_102_531
*1181 FILLER_0_102_533
*1182 FILLER_0_102_545
*1183 FILLER_0_102_557
*1184 FILLER_0_102_569
*1185 FILLER_0_102_581
*1186 FILLER_0_102_587
*1187 FILLER_0_102_589
*1188 FILLER_0_102_601
*1189 FILLER_0_102_613
*1190 FILLER_0_102_625
*1191 FILLER_0_102_637
*1192 FILLER_0_102_643
*1193 FILLER_0_102_645
*1194 FILLER_0_102_65
*1195 FILLER_0_102_657
*1196 FILLER_0_102_669
*1197 FILLER_0_102_681
*1198 FILLER_0_102_693
*1199 FILLER_0_102_699
*1200 FILLER_0_102_701
*1201 FILLER_0_102_713
*1202 FILLER_0_102_725
*1203 FILLER_0_102_737
*1204 FILLER_0_102_749
*1205 FILLER_0_102_755
*1206 FILLER_0_102_757
*1207 FILLER_0_102_769
*1208 FILLER_0_102_77
*1209 FILLER_0_102_781
*1210 FILLER_0_102_793
*1211 FILLER_0_102_805
*1212 FILLER_0_102_811
*1213 FILLER_0_102_813
*1214 FILLER_0_102_825
*1215 FILLER_0_102_83
*1216 FILLER_0_102_837
*1217 FILLER_0_102_841
*1218 FILLER_0_102_85
*1219 FILLER_0_102_97
*1220 FILLER_0_103_105
*1221 FILLER_0_103_111
*1222 FILLER_0_103_113
*1223 FILLER_0_103_125
*1224 FILLER_0_103_137
*1225 FILLER_0_103_149
*1226 FILLER_0_103_15
*1227 FILLER_0_103_161
*1228 FILLER_0_103_167
*1229 FILLER_0_103_169
*1230 FILLER_0_103_181
*1231 FILLER_0_103_193
*1232 FILLER_0_103_205
*1233 FILLER_0_103_217
*1234 FILLER_0_103_223
*1235 FILLER_0_103_225
*1236 FILLER_0_103_237
*1237 FILLER_0_103_249
*1238 FILLER_0_103_261
*1239 FILLER_0_103_27
*1240 FILLER_0_103_273
*1241 FILLER_0_103_279
*1242 FILLER_0_103_281
*1243 FILLER_0_103_293
*1244 FILLER_0_103_3
*1245 FILLER_0_103_305
*1246 FILLER_0_103_317
*1247 FILLER_0_103_329
*1248 FILLER_0_103_335
*1249 FILLER_0_103_337
*1250 FILLER_0_103_349
*1251 FILLER_0_103_361
*1252 FILLER_0_103_373
*1253 FILLER_0_103_385
*1254 FILLER_0_103_39
*1255 FILLER_0_103_391
*1256 FILLER_0_103_393
*1257 FILLER_0_103_405
*1258 FILLER_0_103_417
*1259 FILLER_0_103_429
*1260 FILLER_0_103_441
*1261 FILLER_0_103_447
*1262 FILLER_0_103_449
*1263 FILLER_0_103_461
*1264 FILLER_0_103_473
*1265 FILLER_0_103_485
*1266 FILLER_0_103_497
*1267 FILLER_0_103_503
*1268 FILLER_0_103_505
*1269 FILLER_0_103_51
*1270 FILLER_0_103_517
*1271 FILLER_0_103_529
*1272 FILLER_0_103_541
*1273 FILLER_0_103_55
*1274 FILLER_0_103_553
*1275 FILLER_0_103_559
*1276 FILLER_0_103_561
*1277 FILLER_0_103_57
*1278 FILLER_0_103_573
*1279 FILLER_0_103_585
*1280 FILLER_0_103_597
*1281 FILLER_0_103_609
*1282 FILLER_0_103_615
*1283 FILLER_0_103_617
*1284 FILLER_0_103_629
*1285 FILLER_0_103_641
*1286 FILLER_0_103_653
*1287 FILLER_0_103_665
*1288 FILLER_0_103_671
*1289 FILLER_0_103_673
*1290 FILLER_0_103_685
*1291 FILLER_0_103_69
*1292 FILLER_0_103_697
*1293 FILLER_0_103_709
*1294 FILLER_0_103_721
*1295 FILLER_0_103_727
*1296 FILLER_0_103_729
*1297 FILLER_0_103_741
*1298 FILLER_0_103_753
*1299 FILLER_0_103_765
*1300 FILLER_0_103_777
*1301 FILLER_0_103_783
*1302 FILLER_0_103_785
*1303 FILLER_0_103_797
*1304 FILLER_0_103_809
*1305 FILLER_0_103_81
*1306 FILLER_0_103_821
*1307 FILLER_0_103_833
*1308 FILLER_0_103_839
*1309 FILLER_0_103_841
*1310 FILLER_0_103_93
*1311 FILLER_0_104_109
*1312 FILLER_0_104_121
*1313 FILLER_0_104_133
*1314 FILLER_0_104_139
*1315 FILLER_0_104_141
*1316 FILLER_0_104_15
*1317 FILLER_0_104_153
*1318 FILLER_0_104_165
*1319 FILLER_0_104_177
*1320 FILLER_0_104_189
*1321 FILLER_0_104_195
*1322 FILLER_0_104_197
*1323 FILLER_0_104_209
*1324 FILLER_0_104_221
*1325 FILLER_0_104_233
*1326 FILLER_0_104_245
*1327 FILLER_0_104_251
*1328 FILLER_0_104_253
*1329 FILLER_0_104_265
*1330 FILLER_0_104_27
*1331 FILLER_0_104_277
*1332 FILLER_0_104_289
*1333 FILLER_0_104_29
*1334 FILLER_0_104_3
*1335 FILLER_0_104_301
*1336 FILLER_0_104_307
*1337 FILLER_0_104_309
*1338 FILLER_0_104_321
*1339 FILLER_0_104_333
*1340 FILLER_0_104_345
*1341 FILLER_0_104_357
*1342 FILLER_0_104_363
*1343 FILLER_0_104_365
*1344 FILLER_0_104_377
*1345 FILLER_0_104_389
*1346 FILLER_0_104_401
*1347 FILLER_0_104_41
*1348 FILLER_0_104_413
*1349 FILLER_0_104_419
*1350 FILLER_0_104_421
*1351 FILLER_0_104_433
*1352 FILLER_0_104_445
*1353 FILLER_0_104_457
*1354 FILLER_0_104_469
*1355 FILLER_0_104_475
*1356 FILLER_0_104_477
*1357 FILLER_0_104_489
*1358 FILLER_0_104_501
*1359 FILLER_0_104_513
*1360 FILLER_0_104_525
*1361 FILLER_0_104_53
*1362 FILLER_0_104_531
*1363 FILLER_0_104_533
*1364 FILLER_0_104_545
*1365 FILLER_0_104_557
*1366 FILLER_0_104_569
*1367 FILLER_0_104_581
*1368 FILLER_0_104_587
*1369 FILLER_0_104_589
*1370 FILLER_0_104_601
*1371 FILLER_0_104_613
*1372 FILLER_0_104_625
*1373 FILLER_0_104_637
*1374 FILLER_0_104_643
*1375 FILLER_0_104_645
*1376 FILLER_0_104_65
*1377 FILLER_0_104_657
*1378 FILLER_0_104_669
*1379 FILLER_0_104_681
*1380 FILLER_0_104_693
*1381 FILLER_0_104_699
*1382 FILLER_0_104_701
*1383 FILLER_0_104_713
*1384 FILLER_0_104_725
*1385 FILLER_0_104_737
*1386 FILLER_0_104_749
*1387 FILLER_0_104_755
*1388 FILLER_0_104_757
*1389 FILLER_0_104_769
*1390 FILLER_0_104_77
*1391 FILLER_0_104_781
*1392 FILLER_0_104_793
*1393 FILLER_0_104_805
*1394 FILLER_0_104_811
*1395 FILLER_0_104_813
*1396 FILLER_0_104_825
*1397 FILLER_0_104_83
*1398 FILLER_0_104_837
*1399 FILLER_0_104_841
*1400 FILLER_0_104_85
*1401 FILLER_0_104_97
*1402 FILLER_0_105_105
*1403 FILLER_0_105_111
*1404 FILLER_0_105_113
*1405 FILLER_0_105_125
*1406 FILLER_0_105_137
*1407 FILLER_0_105_149
*1408 FILLER_0_105_15
*1409 FILLER_0_105_161
*1410 FILLER_0_105_167
*1411 FILLER_0_105_169
*1412 FILLER_0_105_181
*1413 FILLER_0_105_193
*1414 FILLER_0_105_205
*1415 FILLER_0_105_217
*1416 FILLER_0_105_223
*1417 FILLER_0_105_225
*1418 FILLER_0_105_237
*1419 FILLER_0_105_249
*1420 FILLER_0_105_261
*1421 FILLER_0_105_27
*1422 FILLER_0_105_273
*1423 FILLER_0_105_279
*1424 FILLER_0_105_281
*1425 FILLER_0_105_293
*1426 FILLER_0_105_3
*1427 FILLER_0_105_305
*1428 FILLER_0_105_317
*1429 FILLER_0_105_329
*1430 FILLER_0_105_335
*1431 FILLER_0_105_337
*1432 FILLER_0_105_349
*1433 FILLER_0_105_361
*1434 FILLER_0_105_373
*1435 FILLER_0_105_385
*1436 FILLER_0_105_39
*1437 FILLER_0_105_391
*1438 FILLER_0_105_393
*1439 FILLER_0_105_405
*1440 FILLER_0_105_417
*1441 FILLER_0_105_429
*1442 FILLER_0_105_441
*1443 FILLER_0_105_447
*1444 FILLER_0_105_449
*1445 FILLER_0_105_461
*1446 FILLER_0_105_473
*1447 FILLER_0_105_485
*1448 FILLER_0_105_497
*1449 FILLER_0_105_503
*1450 FILLER_0_105_505
*1451 FILLER_0_105_51
*1452 FILLER_0_105_517
*1453 FILLER_0_105_529
*1454 FILLER_0_105_541
*1455 FILLER_0_105_55
*1456 FILLER_0_105_553
*1457 FILLER_0_105_559
*1458 FILLER_0_105_561
*1459 FILLER_0_105_57
*1460 FILLER_0_105_573
*1461 FILLER_0_105_585
*1462 FILLER_0_105_597
*1463 FILLER_0_105_609
*1464 FILLER_0_105_615
*1465 FILLER_0_105_617
*1466 FILLER_0_105_629
*1467 FILLER_0_105_641
*1468 FILLER_0_105_653
*1469 FILLER_0_105_665
*1470 FILLER_0_105_671
*1471 FILLER_0_105_673
*1472 FILLER_0_105_685
*1473 FILLER_0_105_69
*1474 FILLER_0_105_697
*1475 FILLER_0_105_709
*1476 FILLER_0_105_721
*1477 FILLER_0_105_727
*1478 FILLER_0_105_729
*1479 FILLER_0_105_741
*1480 FILLER_0_105_753
*1481 FILLER_0_105_765
*1482 FILLER_0_105_777
*1483 FILLER_0_105_783
*1484 FILLER_0_105_785
*1485 FILLER_0_105_797
*1486 FILLER_0_105_809
*1487 FILLER_0_105_81
*1488 FILLER_0_105_821
*1489 FILLER_0_105_833
*1490 FILLER_0_105_839
*1491 FILLER_0_105_841
*1492 FILLER_0_105_93
*1493 FILLER_0_106_109
*1494 FILLER_0_106_121
*1495 FILLER_0_106_133
*1496 FILLER_0_106_139
*1497 FILLER_0_106_141
*1498 FILLER_0_106_15
*1499 FILLER_0_106_153
*1500 FILLER_0_106_165
*1501 FILLER_0_106_177
*1502 FILLER_0_106_189
*1503 FILLER_0_106_195
*1504 FILLER_0_106_197
*1505 FILLER_0_106_209
*1506 FILLER_0_106_221
*1507 FILLER_0_106_233
*1508 FILLER_0_106_245
*1509 FILLER_0_106_251
*1510 FILLER_0_106_253
*1511 FILLER_0_106_265
*1512 FILLER_0_106_27
*1513 FILLER_0_106_277
*1514 FILLER_0_106_289
*1515 FILLER_0_106_29
*1516 FILLER_0_106_3
*1517 FILLER_0_106_301
*1518 FILLER_0_106_307
*1519 FILLER_0_106_309
*1520 FILLER_0_106_321
*1521 FILLER_0_106_333
*1522 FILLER_0_106_345
*1523 FILLER_0_106_357
*1524 FILLER_0_106_363
*1525 FILLER_0_106_365
*1526 FILLER_0_106_377
*1527 FILLER_0_106_389
*1528 FILLER_0_106_401
*1529 FILLER_0_106_41
*1530 FILLER_0_106_413
*1531 FILLER_0_106_419
*1532 FILLER_0_106_421
*1533 FILLER_0_106_433
*1534 FILLER_0_106_445
*1535 FILLER_0_106_457
*1536 FILLER_0_106_469
*1537 FILLER_0_106_475
*1538 FILLER_0_106_477
*1539 FILLER_0_106_489
*1540 FILLER_0_106_501
*1541 FILLER_0_106_513
*1542 FILLER_0_106_525
*1543 FILLER_0_106_53
*1544 FILLER_0_106_531
*1545 FILLER_0_106_533
*1546 FILLER_0_106_545
*1547 FILLER_0_106_557
*1548 FILLER_0_106_569
*1549 FILLER_0_106_581
*1550 FILLER_0_106_587
*1551 FILLER_0_106_589
*1552 FILLER_0_106_601
*1553 FILLER_0_106_613
*1554 FILLER_0_106_625
*1555 FILLER_0_106_637
*1556 FILLER_0_106_643
*1557 FILLER_0_106_645
*1558 FILLER_0_106_65
*1559 FILLER_0_106_657
*1560 FILLER_0_106_669
*1561 FILLER_0_106_681
*1562 FILLER_0_106_693
*1563 FILLER_0_106_699
*1564 FILLER_0_106_701
*1565 FILLER_0_106_713
*1566 FILLER_0_106_725
*1567 FILLER_0_106_737
*1568 FILLER_0_106_749
*1569 FILLER_0_106_755
*1570 FILLER_0_106_757
*1571 FILLER_0_106_769
*1572 FILLER_0_106_77
*1573 FILLER_0_106_781